*************************************************
   ChampSim Multicore Out-of-Order Simulator
   Last compiled: Dec  9 2023 10:40:12
*************************************************
parsing config file: /home/gio/Prefetcher-Research-Project/config/pythia.ini

trace_0 /home/gio/Prefetcher-Research-Project/traces/482.sphinx3-1100B.champsimtrace.xz
adding L2C_PREFETCHER: Scooby
Initialize SHIP state
warmup_instructions 1000000
simulation_instructions 5000000
champsim_seed 260
measure_ipc 0
measure_ipc_epoch 1000
measure_dram_bw 1
measure_dram_bw_epoch 256
measure_cache_acc 1
measure_cache_acc_epoch 1024
l1d_perfect 0
l2c_perfect 0
llc_perfect 0
l1d_semi_perfect 0
l2c_semi_perfect 0
llc_semi_perfect 0
semi_perfect_cache_page_buffer_size 64

num_cpus 1
cpu_freq 550
dram_io_freq 2400
page_size 4096
block_size 64
max_read_per_cycle 8
max_fill_per_cycle 1
dram_channels 1
log2_dram_channels 0
dram_ranks 1
dram_banks 8
dram_rows 65536
dram_columns 128
dram_row_size 8
dram_size 4096
dram_pages 1048576

fetch_width 2
decode_width 2
exec_width 2
lq_width 1
sq_width 1
retire_width 5
scheduler_size 1
branch_mispredict_penalty 1
rob_size 256
lq_size 72
sq_size 56
num_instr_destinations_sparc 4
num_instr_destinations 2
num_instr_sources 4

itlb_set 1024
itlb_way 1024
itlb_rq_size 16
itlb_wq_size 16
itlb_pq_size 0
itlb_mshr_size 8
itlb_latency 0

dtlb_set 1024
dtlb_way 1024
dtlb_rq_size 32
dtlb_wq_size 32
dtlb_pq_size 0
dtlb_mshr_size 8
dtlb_latency 0

stlb_set 1024
stlb_way 1024
stlb_rq_size 32
stlb_wq_size 32
stlb_pq_size 0
stlb_mshr_size 16
stlb_latency 0

l1i_size 32
l1i_set 64
l1i_way 8
l1i_rq_size 64
l1i_wq_size 64
l1i_pq_size 32
l1i_mshr_size 8
l1i_latency 4

l1d_size 8
l1d_set 16
l1d_way 8
l1d_rq_size 64
l1d_wq_size 64
l1d_pq_size 8
l1d_mshr_size 16
l1d_latency 5

l2c_size 32
l2c_set 64
l2c_way 8
l2c_rq_size 32
l2c_wq_size 32
l2c_pq_size 16
l2c_mshr_size 32
l2c_latency 10

llc_size 2048
llc_set 2048
llc_way 16
llc_rq_size 32
llc_wq_size 32
llc_pq_size 32
llc_mshr_size 64
llc_latency 20

dram_channel_width 8
dram_wq_size 64
dram_rq_size 64
tRP 15
tRCD 15
tCAS 12.5
dram_dbus_turn_around_time 4
dram_write_high_wm 56
dram_write_low_wm 48
min_dram_writes_per_switch 16
dram_mtps 2400
dram_dbus_return_time 1

scooby_alpha 0.0065088
scooby_gamma 0.556301
scooby_epsilon 0.00182284
scooby_state_num_bits 10
scooby_max_states 1024
scooby_seed 200
scooby_policy EGreedy
scooby_learning_type SARSA
scooby_actions 1,3,4,5,10,11,12,22,23,30,32,-1,-3,-6,0,
scooby_max_actions 15
scooby_pt_size 256
scooby_st_size 64
scooby_max_pcs 5
scooby_max_offsets 5
scooby_max_deltas 5
scooby_reward_none -4
scooby_reward_incorrect -8
scooby_reward_correct_untimely 12
scooby_reward_correct_timely 20
scooby_brain_zero_init 0
scooby_enable_reward_all 0
scooby_enable_track_multiple 0
scooby_enable_reward_out_of_bounds 1
scooby_reward_out_of_bounds -12
scooby_state_type 1
scooby_state_hash_type 11
scooby_access_debug 0
scooby_print_access_debug 0
scooby_print_access_debug_pc deadbeef
scooby_print_access_debug_pc_count 0
scooby_print_trace 0
scooby_enable_state_action_stats 1
scooby_enable_reward_tracker_hit 0
scooby_reward_tracker_hit -2
scooby_enable_featurewise_engine 1
scooby_pref_degree 1
scooby_enable_dyn_degree 1
scooby_max_to_avg_q_thresholds 0.5,1,2,
scooby_dyn_degrees 1,2,4,4,
scooby_multi_deg_select_type 2
scooby_last_pref_offset_conf_thresholds 1,3,8,
scooby_dyn_degrees_type2 1,2,4,6,
scooby_action_tracker_size 2
scooby_high_bw_thresh 4
scooby_enable_hbw_reward 1
scooby_reward_hbw_correct_timely 20
scooby_reward_hbw_correct_untimely 12
scooby_reward_hbw_incorrect -14
scooby_reward_hbw_none -2
scooby_reward_hbw_out_of_bounds -12
scooby_reward_hbw_tracker_hit -2
scooby_last_pref_offset_conf_thresholds_hbw 1,3,8,
scooby_dyn_degrees_type2_hbw 1,2,4,6,

le_enable_trace 0
le_trace_interval 0
le_trace_file_name 
le_trace_state 0
le_enable_score_plot 0
le_plot_file_name 
le_plot_actions 
le_enable_action_trace 0
le_action_trace_interval 0
le_action_trace_name 
le_enable_action_plot 0

le_featurewise_active_features PC, PC_Delta
le_featurewise_num_tilings 3,3,
le_featurewise_num_tiles 128,128,
le_featurewise_hash_types 2,2,
le_featurewise_enable_tiling_offset 1,1,
le_featurewise_max_q_thresh 0.5
le_featurewise_enable_action_fallback 1
le_featurewise_feature_weights 1,1,
le_featurewise_enable_dynamic_weight 0
le_featurewise_weight_gradient 0.001
le_featurewise_disable_adjust_weight_all_features_align 1
le_featurewise_selective_update 0
le_featurewise_pooling_type 2
le_featurewise_enable_dyn_action_fallback 1
le_featurewise_bw_acc_check_level 1
le_featurewise_acc_thresh 2
le_featurewise_enable_trace 0
le_featurewise_trace_feature_type 0
le_featurewise_trace_feature 
le_featurewise_trace_interval 0
le_featurewise_trace_record_count 0
le_featurewise_trace_file_name 
le_featurewise_enable_score_plot 0
le_featurewise_plot_actions 
le_featurewise_plot_file_name 


Heartbeat CPU  0 instructions:    1000000 cycles:    1264585 heartbeat IPC: 0.79077 cumulative IPC: 0.79077 (Simulation time: 0 hr 0 min 3 sec) 

Warmup complete CPU  0 instructions:    1000001 cycles:    1264587 (Simulation time: 0 hr 0 min 3 sec) 

Heartbeat CPU  0 instructions:    2000000 cycles:   10987783 heartbeat IPC: 0.10285 cumulative IPC: 0.10285 (Simulation time: 0 hr 0 min 8 sec) 
Heartbeat CPU  0 instructions:    3000000 cycles:   20840391 heartbeat IPC: 0.10150 cumulative IPC: 0.10217 (Simulation time: 0 hr 0 min 12 sec) 
Heartbeat CPU  0 instructions:    4000000 cycles:   30736743 heartbeat IPC: 0.10105 cumulative IPC: 0.10179 (Simulation time: 0 hr 0 min 17 sec) 
Heartbeat CPU  0 instructions:    5000000 cycles:   40450312 heartbeat IPC: 0.10295 cumulative IPC: 0.10208 (Simulation time: 0 hr 0 min 22 sec) 
Heartbeat CPU  0 instructions:    6000000 cycles:   49881002 heartbeat IPC: 0.10604 cumulative IPC: 0.10285 (Simulation time: 0 hr 0 min 27 sec) 
Finished CPU 0 instructions: 5000000 cycles: 48616423 cumulative IPC: 0.10285 (Simulation time: 0 hr 0 min 27 sec) 

ChampSim completed all CPUs

[ROI Statistics]
Core_0_instructions 5000000
Core_0_cycles 48616423
Core_0_IPC 0.10285

Core_0_branch_prediction_accuracy 97.26156
Core_0_branch_MPKI 2.48620
Core_0_average_ROB_occupancy_at_mispredict 126.62835

Core_0_L1D_total_access 1375111
Core_0_L1D_total_hit 1294986
Core_0_L1D_total_miss 80125
Core_0_L1D_loads 1295872
Core_0_L1D_load_hit 1220277
Core_0_L1D_load_miss 75595
Core_0_L1D_RFOs 79239
Core_0_L1D_RFO_hit 74709
Core_0_L1D_RFO_miss 4530
Core_0_L1D_prefetches 0
Core_0_L1D_prefetch_hit 0
Core_0_L1D_prefetch_miss 0
Core_0_L1D_writebacks 0
Core_0_L1D_writeback_hit 0
Core_0_L1D_writeback_miss 0
Core_0_L1D_prefetch_requested 0
Core_0_L1D_prefetch_dropped 0
Core_0_L1D_prefetch_issued 0
Core_0_L1D_prefetch_filled 0
Core_0_L1D_prefetch_useful 0
Core_0_L1D_prefetch_useless 0
Core_0_L1D_prefetch_late 0
Core_0_L1D_average_miss_latency 26.55858

Core_0_L1D_rq_access 1295873
Core_0_L1D_rq_forward 0
Core_0_L1D_rq_merged 0
Core_0_L1D_rq_to_cache 1295873
Core_0_L1D_rq_full 0

Core_0_L1D_wq_access 91128
Core_0_L1D_wq_forward 0
Core_0_L1D_wq_merged 0
Core_0_L1D_wq_to_cache 91128
Core_0_L1D_wq_full 0

Core_0_L1D_pq_access 0
Core_0_L1D_pq_forward 0
Core_0_L1D_pq_merged 0
Core_0_L1D_pq_to_cache 0
Core_0_L1D_pq_full 0

Core_0_L1D_acc_epochs 48521
Core_0_L1D_acc_level_0 48521
Core_0_L1D_acc_level_1 0
Core_0_L1D_acc_level_2 0
Core_0_L1D_acc_level_3 0
Core_0_L1D_acc_level_4 0
Core_0_L1D_acc_level_5 0
Core_0_L1D_acc_level_6 0
Core_0_L1D_acc_level_7 0
Core_0_L1D_acc_level_8 0
Core_0_L1D_acc_level_9 0

Core_0_L1I_total_access 3628079
Core_0_L1I_total_hit 3627864
Core_0_L1I_total_miss 215
Core_0_L1I_loads 3628079
Core_0_L1I_load_hit 3627864
Core_0_L1I_load_miss 215
Core_0_L1I_RFOs 0
Core_0_L1I_RFO_hit 0
Core_0_L1I_RFO_miss 0
Core_0_L1I_prefetches 0
Core_0_L1I_prefetch_hit 0
Core_0_L1I_prefetch_miss 0
Core_0_L1I_writebacks 0
Core_0_L1I_writeback_hit 0
Core_0_L1I_writeback_miss 0
Core_0_L1I_prefetch_requested 0
Core_0_L1I_prefetch_dropped 0
Core_0_L1I_prefetch_issued 0
Core_0_L1I_prefetch_filled 0
Core_0_L1I_prefetch_useful 0
Core_0_L1I_prefetch_useless 0
Core_0_L1I_prefetch_late 0
Core_0_L1I_average_miss_latency 76.27907

Core_0_L1I_rq_access 5000000
Core_0_L1I_rq_forward 0
Core_0_L1I_rq_merged 1371821
Core_0_L1I_rq_to_cache 3628179
Core_0_L1I_rq_full 0

Core_0_L1I_wq_access 0
Core_0_L1I_wq_forward 0
Core_0_L1I_wq_merged 0
Core_0_L1I_wq_to_cache 0
Core_0_L1I_wq_full 0

Core_0_L1I_pq_access 0
Core_0_L1I_pq_forward 0
Core_0_L1I_pq_merged 0
Core_0_L1I_pq_to_cache 0
Core_0_L1I_pq_full 0

Core_0_L1I_acc_epochs 48521
Core_0_L1I_acc_level_0 48521
Core_0_L1I_acc_level_1 0
Core_0_L1I_acc_level_2 0
Core_0_L1I_acc_level_3 0
Core_0_L1I_acc_level_4 0
Core_0_L1I_acc_level_5 0
Core_0_L1I_acc_level_6 0
Core_0_L1I_acc_level_7 0
Core_0_L1I_acc_level_8 0
Core_0_L1I_acc_level_9 0

Core_0_L2C_total_access 380038
Core_0_L2C_total_hit 270503
Core_0_L2C_total_miss 109535
Core_0_L2C_loads 75810
Core_0_L2C_load_hit 57436
Core_0_L2C_load_miss 18374
Core_0_L2C_RFOs 4530
Core_0_L2C_RFO_hit 378
Core_0_L2C_RFO_miss 4152
Core_0_L2C_prefetches 293245
Core_0_L2C_prefetch_hit 206575
Core_0_L2C_prefetch_miss 86670
Core_0_L2C_writebacks 6453
Core_0_L2C_writeback_hit 6114
Core_0_L2C_writeback_miss 339
Core_0_L2C_prefetch_requested 358090
Core_0_L2C_prefetch_dropped 0
Core_0_L2C_prefetch_issued 358090
Core_0_L2C_prefetch_filled 99192
Core_0_L2C_prefetch_useful 66646
Core_0_L2C_prefetch_useless 32520
Core_0_L2C_prefetch_late 5
Core_0_L2C_average_miss_latency 49.90682

Core_0_L2C_rq_access 80340
Core_0_L2C_rq_forward 0
Core_0_L2C_rq_merged 0
Core_0_L2C_rq_to_cache 80340
Core_0_L2C_rq_full 0

Core_0_L2C_wq_access 6453
Core_0_L2C_wq_forward 0
Core_0_L2C_wq_merged 0
Core_0_L2C_wq_to_cache 6453
Core_0_L2C_wq_full 0

Core_0_L2C_pq_access 358090
Core_0_L2C_pq_forward 0
Core_0_L2C_pq_merged 42
Core_0_L2C_pq_to_cache 358048
Core_0_L2C_pq_full 0

Core_0_L2C_acc_epochs 48521
Core_0_L2C_acc_level_0 4582
Core_0_L2C_acc_level_1 4636
Core_0_L2C_acc_level_2 4621
Core_0_L2C_acc_level_3 7053
Core_0_L2C_acc_level_4 4098
Core_0_L2C_acc_level_5 3737
Core_0_L2C_acc_level_6 6041
Core_0_L2C_acc_level_7 3265
Core_0_L2C_acc_level_8 3348
Core_0_L2C_acc_level_9 7140

Core_0_LLC_total_access 115269
Core_0_LLC_total_hit 45849
Core_0_LLC_total_miss 69420
Core_0_LLC_loads 18369
Core_0_LLC_load_hit 13199
Core_0_LLC_load_miss 5170
Core_0_LLC_RFOs 4152
Core_0_LLC_RFO_hit 1266
Core_0_LLC_RFO_miss 2886
Core_0_LLC_prefetches 86675
Core_0_LLC_prefetch_hit 25312
Core_0_LLC_prefetch_miss 61363
Core_0_LLC_writebacks 6073
Core_0_LLC_writeback_hit 6072
Core_0_LLC_writeback_miss 1
Core_0_LLC_prefetch_requested 0
Core_0_LLC_prefetch_dropped 0
Core_0_LLC_prefetch_issued 0
Core_0_LLC_prefetch_filled 73855
Core_0_LLC_prefetch_useful 1380
Core_0_LLC_prefetch_useless 47804
Core_0_LLC_prefetch_late 0
Core_0_LLC_average_miss_latency 31.01402

Core_0_LLC_rq_access 22521
Core_0_LLC_rq_forward 0
Core_0_LLC_rq_merged 0
Core_0_LLC_rq_to_cache 22521
Core_0_LLC_rq_full 0

Core_0_LLC_wq_access 6073
Core_0_LLC_wq_forward 0
Core_0_LLC_wq_merged 0
Core_0_LLC_wq_to_cache 6073
Core_0_LLC_wq_full 0

Core_0_LLC_pq_access 99197
Core_0_LLC_pq_forward 0
Core_0_LLC_pq_merged 0
Core_0_LLC_pq_to_cache 99197
Core_0_LLC_pq_full 0

Core_0_LLC_acc_epochs 48712
Core_0_LLC_acc_level_0 47505
Core_0_LLC_acc_level_1 517
Core_0_LLC_acc_level_2 363
Core_0_LLC_acc_level_3 46
Core_0_LLC_acc_level_4 12
Core_0_LLC_acc_level_5 223
Core_0_LLC_acc_level_6 12
Core_0_LLC_acc_level_7 10
Core_0_LLC_acc_level_8 3
Core_0_LLC_acc_level_9 21

Core_0_major_page_fault 0
Core_0_minor_page_fault 2201

scooby_st_lookup 88471
scooby_st_hit 84997
scooby_st_evict 3410
scooby_st_insert 3474
scooby_st_streaming 0

scooby_predict_called 88471
scooby_predict_out_of_bounds 2367
scooby_predict_action_1 79927
scooby_predict_issue_action_1 78276
scooby_predict_hit_action_1 1651
scooby_predict_out_of_bounds_action_1 1297
scooby_predict_action_3 754
scooby_predict_issue_action_3 556
scooby_predict_hit_action_3 198
scooby_predict_out_of_bounds_action_3 39
scooby_predict_action_4 595
scooby_predict_issue_action_4 539
scooby_predict_hit_action_4 56
scooby_predict_out_of_bounds_action_4 49
scooby_predict_action_5 597
scooby_predict_issue_action_5 543
scooby_predict_hit_action_5 54
scooby_predict_out_of_bounds_action_5 54
scooby_predict_action_10 485
scooby_predict_issue_action_10 436
scooby_predict_hit_action_10 49
scooby_predict_out_of_bounds_action_10 92
scooby_predict_action_11 456
scooby_predict_issue_action_11 411
scooby_predict_hit_action_11 45
scooby_predict_out_of_bounds_action_11 87
scooby_predict_action_12 380
scooby_predict_issue_action_12 345
scooby_predict_hit_action_12 35
scooby_predict_out_of_bounds_action_12 79
scooby_predict_action_22 277
scooby_predict_issue_action_22 247
scooby_predict_hit_action_22 30
scooby_predict_out_of_bounds_action_22 145
scooby_predict_action_23 222
scooby_predict_issue_action_23 208
scooby_predict_hit_action_23 14
scooby_predict_out_of_bounds_action_23 126
scooby_predict_action_30 197
scooby_predict_issue_action_30 176
scooby_predict_hit_action_30 21
scooby_predict_out_of_bounds_action_30 164
scooby_predict_action_32 157
scooby_predict_issue_action_32 139
scooby_predict_hit_action_32 18
scooby_predict_out_of_bounds_action_32 175
scooby_predict_action_-1 500
scooby_predict_issue_action_-1 420
scooby_predict_hit_action_-1 80
scooby_predict_out_of_bounds_action_-1 9
scooby_predict_action_-3 476
scooby_predict_issue_action_-3 417
scooby_predict_hit_action_-3 59
scooby_predict_out_of_bounds_action_-3 15
scooby_predict_action_-6 446
scooby_predict_issue_action_-6 412
scooby_predict_hit_action_-6 34
scooby_predict_out_of_bounds_action_-6 36
scooby_predict_action_0 635
scooby_predict_issue_action_0 0
scooby_predict_hit_action_0 0
scooby_predict_out_of_bounds_action_0 0
scooby_predict_multi_deg_called 66819
scooby_predict_predicted 358090
scooby_predict_multi_deg 274965
scooby_predict_multi_deg_2 65703
scooby_predict_multi_deg_3 58991
scooby_predict_multi_deg_4 57908
scooby_predict_multi_deg_5 46662
scooby_predict_multi_deg_6 45701
scooby_predict_multi_deg_7 0
scooby_predict_multi_deg_8 0
scooby_predict_multi_deg_9 0
scooby_predict_multi_deg_10 0
scooby_predict_multi_deg_11 0
scooby_predict_multi_deg_12 0
scooby_predict_multi_deg_13 0
scooby_predict_multi_deg_14 0
scooby_predict_multi_deg_15 0
scooby_predict_multi_deg_16 0

scooby_selected_deg_1 16306
scooby_selected_deg_2 5688
scooby_selected_deg_3 0
scooby_selected_deg_4 10551
scooby_selected_deg_5 0
scooby_selected_deg_6 50580
scooby_selected_deg_7 0
scooby_selected_deg_8 0
scooby_selected_deg_9 0
scooby_selected_deg_10 0
scooby_selected_deg_11 0
scooby_selected_deg_12 0
scooby_selected_deg_13 0
scooby_selected_deg_14 0
scooby_selected_deg_15 0
scooby_selected_deg_16 0

scooby_state_41c9d6|20|1 209,0,0,0,0,0,0,0,0,0,0,0,0,0,0,209,
scooby_state_41c9d6|10|1 208,0,0,0,0,0,0,0,0,0,0,0,0,1,0,209,
scooby_state_41c9d6|12|1 209,0,0,0,0,0,0,0,0,0,0,0,0,0,0,209,
scooby_state_41c9d6|9|1 209,0,0,0,0,0,0,0,0,0,0,0,0,0,0,209,
scooby_state_41c9d6|11|1 208,0,0,0,1,0,0,0,0,0,0,0,0,0,0,209,
scooby_state_41c9d6|16|1 209,0,0,0,0,0,0,0,0,0,0,0,0,0,0,209,
scooby_state_41c9d6|14|1 209,0,0,0,0,0,0,0,0,0,0,0,0,0,0,209,
scooby_state_41c9d6|13|1 209,0,0,0,0,0,0,0,0,0,0,0,0,0,0,209,
scooby_state_41c9d6|19|1 208,0,0,0,0,0,0,0,0,0,0,0,1,0,0,209,
scooby_state_41c9d6|18|1 208,1,0,0,0,0,0,0,0,0,0,0,0,0,0,209,
scooby_state_41c9d6|17|1 208,0,0,0,0,0,0,0,0,0,0,0,1,0,0,209,
scooby_state_41c9d6|15|1 209,0,0,0,0,0,0,0,0,0,0,0,0,0,0,209,
scooby_state_41c9d6|50|1 207,0,0,0,0,0,0,0,1,0,0,0,0,0,0,208,
scooby_state_41c9d6|32|1 208,0,0,0,0,0,0,0,0,0,0,0,0,0,0,208,
scooby_state_41c9d6|49|1 208,0,0,0,0,0,0,0,0,0,0,0,0,0,0,208,
scooby_state_41c9d6|52|1 208,0,0,0,0,0,0,0,0,0,0,0,0,0,0,208,
scooby_state_41c9d6|27|1 208,0,0,0,0,0,0,0,0,0,0,0,0,0,0,208,
scooby_state_41c9d6|31|1 208,0,0,0,0,0,0,0,0,0,0,0,0,0,0,208,
scooby_state_41c9d6|63|1 207,1,0,0,0,0,0,0,0,0,0,0,0,0,0,208,
scooby_state_41c9d6|44|1 208,0,0,0,0,0,0,0,0,0,0,0,0,0,0,208,
scooby_state_41c9d6|51|1 208,0,0,0,0,0,0,0,0,0,0,0,0,0,0,208,
scooby_state_41c9d6|59|1 207,0,0,1,0,0,0,0,0,0,0,0,0,0,0,208,
scooby_state_41c9d6|60|1 208,0,0,0,0,0,0,0,0,0,0,0,0,0,0,208,
scooby_state_41c9d6|61|1 208,0,0,0,0,0,0,0,0,0,0,0,0,0,0,208,
scooby_state_41c9d6|23|1 208,0,0,0,0,0,0,0,0,0,0,0,0,0,0,208,
scooby_state_41c9d6|48|1 208,0,0,0,0,0,0,0,0,0,0,0,0,0,0,208,
scooby_state_41c9d6|41|1 208,0,0,0,0,0,0,0,0,0,0,0,0,0,0,208,
scooby_state_41c9d6|53|1 207,0,0,0,0,0,0,0,0,1,0,0,0,0,0,208,
scooby_state_41c9d6|55|1 208,0,0,0,0,0,0,0,0,0,0,0,0,0,0,208,
scooby_state_41c9d6|34|1 208,0,0,0,0,0,0,0,0,0,0,0,0,0,0,208,
scooby_state_41c9d6|24|1 208,0,0,0,0,0,0,0,0,0,0,0,0,0,0,208,
scooby_state_41c9d6|47|1 208,0,0,0,0,0,0,0,0,0,0,0,0,0,0,208,
scooby_state_41c9d6|8|1 207,0,0,0,1,0,0,0,0,0,0,0,0,0,0,208,
scooby_state_41c9d6|33|1 208,0,0,0,0,0,0,0,0,0,0,0,0,0,0,208,
scooby_state_41c9d6|54|1 207,0,0,1,0,0,0,0,0,0,0,0,0,0,0,208,
scooby_state_41c9d6|42|1 207,0,0,0,0,0,0,1,0,0,0,0,0,0,0,208,
scooby_state_41c9d6|29|1 208,0,0,0,0,0,0,0,0,0,0,0,0,0,0,208,
scooby_state_41c9d6|57|1 208,0,0,0,0,0,0,0,0,0,0,0,0,0,0,208,
scooby_state_41c9d6|1|1 208,0,0,0,0,0,0,0,0,0,0,0,0,0,0,208,
scooby_state_41c9d6|58|1 205,0,0,1,0,1,0,0,0,0,0,0,0,0,1,208,
scooby_state_41c9d6|62|1 207,0,0,0,0,0,0,1,0,0,0,0,0,0,0,208,
scooby_state_41c9d6|5|1 207,0,0,0,0,0,0,0,0,0,0,0,0,1,0,208,
scooby_state_41c9d6|28|1 207,0,0,0,0,0,0,1,0,0,0,0,0,0,0,208,
scooby_state_41c9d6|30|1 208,0,0,0,0,0,0,0,0,0,0,0,0,0,0,208,
scooby_state_41c9d6|45|1 207,0,0,0,0,1,0,0,0,0,0,0,0,0,0,208,
scooby_state_41c9d6|40|1 208,0,0,0,0,0,0,0,0,0,0,0,0,0,0,208,
scooby_state_41c9d6|21|1 208,0,0,0,0,0,0,0,0,0,0,0,0,0,0,208,
scooby_state_41c9d6|3|1 207,0,1,0,0,0,0,0,0,0,0,0,0,0,0,208,
scooby_state_41c9d6|22|1 208,0,0,0,0,0,0,0,0,0,0,0,0,0,0,208,
scooby_state_41c9d6|25|1 208,0,0,0,0,0,0,0,0,0,0,0,0,0,0,208,
scooby_state_41c9d6|35|1 208,0,0,0,0,0,0,0,0,0,0,0,0,0,0,208,
scooby_state_41c9d6|0|0 208,0,0,0,0,0,0,0,0,0,0,0,0,0,0,208,
scooby_state_41c9d6|2|1 208,0,0,0,0,0,0,0,0,0,0,0,0,0,0,208,
scooby_state_41c9d6|7|1 208,0,0,0,0,0,0,0,0,0,0,0,0,0,0,208,
scooby_state_41c9d6|26|1 207,0,0,0,0,0,0,0,0,0,1,0,0,0,0,208,
scooby_state_41c9d6|43|1 208,0,0,0,0,0,0,0,0,0,0,0,0,0,0,208,
scooby_state_41c9d6|4|1 208,0,0,0,0,0,0,0,0,0,0,0,0,0,0,208,
scooby_state_41c9d6|46|1 207,0,0,0,0,1,0,0,0,0,0,0,0,0,0,208,
scooby_state_41c9d6|6|1 208,0,0,0,0,0,0,0,0,0,0,0,0,0,0,208,
scooby_state_41c9d6|56|1 208,0,0,0,0,0,0,0,0,0,0,0,0,0,0,208,
scooby_state_41c9d6|37|1 207,0,0,0,0,0,0,0,0,0,0,0,0,0,0,207,
scooby_state_41c9d6|39|1 207,0,0,0,0,0,0,0,0,0,0,0,0,0,0,207,
scooby_state_41c9d6|38|1 206,0,0,0,0,0,0,0,0,0,1,0,0,0,0,207,
scooby_state_41c9d6|36|1 206,0,0,0,0,0,0,0,0,0,0,0,0,0,0,206,
scooby_state_41c9ff|11|1 193,0,0,1,0,0,0,0,0,0,0,0,0,0,0,194,
scooby_state_41c9ff|9|1 192,0,0,0,0,0,0,0,0,0,0,1,0,0,0,193,
scooby_state_41c9ff|8|1 193,0,0,0,0,0,0,0,0,0,0,0,0,0,0,193,
scooby_state_41c9ff|14|1 193,0,0,0,0,0,0,0,0,0,0,0,0,0,0,193,
scooby_state_41c9ff|49|1 193,0,0,0,0,0,0,0,0,0,0,0,0,0,0,193,
scooby_state_41c9ff|19|1 193,0,0,0,0,0,0,0,0,0,0,0,0,0,0,193,
scooby_state_41c9ff|13|1 192,0,0,0,0,0,0,0,0,1,0,0,0,0,0,193,
scooby_state_41c9ff|18|1 193,0,0,0,0,0,0,0,0,0,0,0,0,0,0,193,
scooby_state_41c9ff|15|1 193,0,0,0,0,0,0,0,0,0,0,0,0,0,0,193,
scooby_state_41c9ff|24|1 193,0,0,0,0,0,0,0,0,0,0,0,0,0,0,193,
scooby_state_41c9ff|21|1 193,0,0,0,0,0,0,0,0,0,0,0,0,0,0,193,
scooby_state_41c9ff|20|1 192,0,0,0,0,0,0,0,1,0,0,0,0,0,0,193,
scooby_state_41c9ff|12|1 192,0,0,0,1,0,0,0,0,0,0,0,0,0,0,193,
scooby_state_41c9ff|62|1 193,0,0,0,0,0,0,0,0,0,0,0,0,0,0,193,
scooby_state_41c9ff|10|1 193,0,0,0,0,0,0,0,0,0,0,0,0,0,0,193,
scooby_state_41c9ff|53|1 192,0,0,0,0,0,0,0,0,0,0,0,0,0,0,192,
scooby_state_41c9ff|45|1 192,0,0,0,0,0,0,0,0,0,0,0,0,0,0,192,
scooby_state_41c9ff|47|1 192,0,0,0,0,0,0,0,0,0,0,0,0,0,0,192,
scooby_state_41c9ff|57|1 192,0,0,0,0,0,0,0,0,0,0,0,0,0,0,192,
scooby_state_41c9ff|32|1 192,0,0,0,0,0,0,0,0,0,0,0,0,0,0,192,
scooby_state_41c9ff|7|1 192,0,0,0,0,0,0,0,0,0,0,0,0,0,0,192,
scooby_state_41c9ff|31|1 192,0,0,0,0,0,0,0,0,0,0,0,0,0,0,192,
scooby_state_41c9ff|41|1 192,0,0,0,0,0,0,0,0,0,0,0,0,0,0,192,
scooby_state_41c9ff|51|1 192,0,0,0,0,0,0,0,0,0,0,0,0,0,0,192,
scooby_state_41c9ff|0|0 192,0,0,0,0,0,0,0,0,0,0,0,0,0,0,192,
scooby_state_41c9ff|56|1 191,0,0,0,0,0,0,0,0,0,1,0,0,0,0,192,
scooby_state_41c9ff|22|1 192,0,0,0,0,0,0,0,0,0,0,0,0,0,0,192,
scooby_state_41c9ff|43|1 192,0,0,0,0,0,0,0,0,0,0,0,0,0,0,192,
scooby_state_41c9ff|23|1 192,0,0,0,0,0,0,0,0,0,0,0,0,0,0,192,
scooby_state_41c9ff|16|1 192,0,0,0,0,0,0,0,0,0,0,0,0,0,0,192,
scooby_state_41c9ff|30|1 192,0,0,0,0,0,0,0,0,0,0,0,0,0,0,192,
scooby_state_41c9ff|27|1 192,0,0,0,0,0,0,0,0,0,0,0,0,0,0,192,
scooby_state_41c9ff|5|1 192,0,0,0,0,0,0,0,0,0,0,0,0,0,0,192,
scooby_state_41c9ff|3|1 191,1,0,0,0,0,0,0,0,0,0,0,0,0,0,192,
scooby_state_41c9ff|1|1 192,0,0,0,0,0,0,0,0,0,0,0,0,0,0,192,
scooby_state_41c9ff|52|1 192,0,0,0,0,0,0,0,0,0,0,0,0,0,0,192,
scooby_state_41c9ff|25|1 190,0,0,0,0,0,0,0,0,0,1,0,0,0,1,192,
scooby_state_41c9ff|28|1 191,0,0,0,0,0,0,0,0,1,0,0,0,0,0,192,
scooby_state_41c9ff|39|1 192,0,0,0,0,0,0,0,0,0,0,0,0,0,0,192,
scooby_state_41c9ff|38|1 192,0,0,0,0,0,0,0,0,0,0,0,0,0,0,192,
scooby_state_41c9ff|37|1 192,0,0,0,0,0,0,0,0,0,0,0,0,0,0,192,
scooby_state_41c9ff|63|1 192,0,0,0,0,0,0,0,0,0,0,0,0,0,0,192,
scooby_state_41c9ff|60|1 192,0,0,0,0,0,0,0,0,0,0,0,0,0,0,192,
scooby_state_41c9ff|46|1 191,0,1,0,0,0,0,0,0,0,0,0,0,0,0,192,
scooby_state_41c9ff|61|1 190,1,0,0,0,0,0,0,0,0,0,1,0,0,0,192,
scooby_state_41c9ff|58|1 192,0,0,0,0,0,0,0,0,0,0,0,0,0,0,192,
scooby_state_41c9ff|48|1 192,0,0,0,0,0,0,0,0,0,0,0,0,0,0,192,
scooby_state_41c9ff|35|1 192,0,0,0,0,0,0,0,0,0,0,0,0,0,0,192,
scooby_state_41c9ff|33|1 192,0,0,0,0,0,0,0,0,0,0,0,0,0,0,192,
scooby_state_41c9ff|36|1 190,0,0,0,0,0,0,0,0,1,1,0,0,0,0,192,
scooby_state_41c9ff|34|1 192,0,0,0,0,0,0,0,0,0,0,0,0,0,0,192,
scooby_state_41c9ff|6|1 192,0,0,0,0,0,0,0,0,0,0,0,0,0,0,192,
scooby_state_41c9ff|17|1 192,0,0,0,0,0,0,0,0,0,0,0,0,0,0,192,
scooby_state_41c9ff|26|1 192,0,0,0,0,0,0,0,0,0,0,0,0,0,0,192,
scooby_state_41c9ff|44|1 192,0,0,0,0,0,0,0,0,0,0,0,0,0,0,192,
scooby_state_41c9ff|54|1 192,0,0,0,0,0,0,0,0,0,0,0,0,0,0,192,
scooby_state_41c9ff|2|1 192,0,0,0,0,0,0,0,0,0,0,0,0,0,0,192,
scooby_state_41c9ff|40|1 190,0,1,1,0,0,0,0,0,0,0,0,0,0,0,192,
scooby_state_41c9ff|59|1 192,0,0,0,0,0,0,0,0,0,0,0,0,0,0,192,
scooby_state_41c9ff|50|1 191,0,0,0,0,0,0,0,0,0,0,0,1,0,0,192,
scooby_state_41c9ff|29|1 189,0,0,0,0,0,0,0,0,0,0,1,0,0,1,191,
scooby_state_41c9ff|4|1 190,0,0,0,0,0,0,1,0,0,0,0,0,0,0,191,
scooby_state_41c9ff|42|1 190,0,0,0,1,0,0,0,0,0,0,0,0,0,0,191,
scooby_state_41c9ff|55|1 191,0,0,0,0,0,0,0,0,0,0,0,0,0,0,191,
scooby_state_403bf7|4|1 179,0,0,0,0,0,0,0,0,0,0,0,0,0,0,179,
scooby_state_403bfc|4|1 179,0,0,0,0,0,0,0,0,0,0,0,0,0,0,179,
scooby_state_403bf7|3|1 178,0,1,0,0,0,0,0,0,0,0,0,0,0,0,179,
scooby_state_403bfc|3|1 179,0,0,0,0,0,0,0,0,0,0,0,0,0,0,179,
scooby_state_403bf7|6|1 174,0,0,0,0,0,0,0,0,0,0,0,0,0,0,174,
scooby_state_403bfc|6|1 174,0,0,0,0,0,0,0,0,0,0,0,0,0,0,174,
scooby_state_403bfc|18|1 173,0,0,0,0,0,0,0,0,0,0,0,0,0,0,173,
scooby_state_403bfc|2|1 173,0,0,0,0,0,0,0,0,0,0,0,0,0,0,173,
scooby_state_403bf7|2|1 173,0,0,0,0,0,0,0,0,0,0,0,0,0,0,173,
scooby_state_403bfc|13|1 173,0,0,0,0,0,0,0,0,0,0,0,0,0,0,173,
scooby_state_403bf7|19|1 173,0,0,0,0,0,0,0,0,0,0,0,0,0,0,173,
scooby_state_403bfc|15|1 173,0,0,0,0,0,0,0,0,0,0,0,0,0,0,173,
scooby_state_403bfc|14|1 173,0,0,0,0,0,0,0,0,0,0,0,0,0,0,173,
scooby_state_403bfc|0|0 173,0,0,0,0,0,0,0,0,0,0,0,0,0,0,173,
scooby_state_403bf7|13|1 173,0,0,0,0,0,0,0,0,0,0,0,0,0,0,173,
scooby_state_403bfc|19|1 173,0,0,0,0,0,0,0,0,0,0,0,0,0,0,173,
scooby_state_403bf7|15|1 173,0,0,0,0,0,0,0,0,0,0,0,0,0,0,173,
scooby_state_403bf7|14|1 173,0,0,0,0,0,0,0,0,0,0,0,0,0,0,173,
scooby_state_403bf7|18|1 173,0,0,0,0,0,0,0,0,0,0,0,0,0,0,173,
scooby_state_403bf7|0|0 173,0,0,0,0,0,0,0,0,0,0,0,0,0,0,173,
scooby_state_403bf7|7|1 172,0,0,0,0,0,0,0,0,0,0,0,0,0,0,172,
scooby_state_403bfc|16|1 172,0,0,0,0,0,0,0,0,0,0,0,0,0,0,172,
scooby_state_403bfc|7|1 172,0,0,0,0,0,0,0,0,0,0,0,0,0,0,172,
scooby_state_403bf7|17|1 171,0,0,0,0,0,0,0,0,0,0,0,0,0,1,172,
scooby_state_403bf7|16|1 172,0,0,0,0,0,0,0,0,0,0,0,0,0,0,172,
scooby_state_403bfc|17|1 172,0,0,0,0,0,0,0,0,0,0,0,0,0,0,172,
scooby_state_403bf7|5|1 171,0,0,0,0,0,0,0,0,0,0,0,0,0,0,171,
scooby_state_403bfc|12|1 169,1,0,0,0,0,0,1,0,0,0,0,0,0,0,171,
scooby_state_403bfc|5|1 171,0,0,0,0,0,0,0,0,0,0,0,0,0,0,171,
scooby_state_403bf7|12|1 170,0,0,0,0,1,0,0,0,0,0,0,0,0,0,171,
scooby_state_403bf7|8|1 169,0,0,0,0,0,0,0,0,0,0,0,0,0,0,169,
scooby_state_403bfc|8|1 169,0,0,0,0,0,0,0,0,0,0,0,0,0,0,169,
scooby_state_403bfc|20|1 168,0,1,0,0,0,0,0,0,0,0,0,0,0,0,169,
scooby_state_403bf7|20|1 169,0,0,0,0,0,0,0,0,0,0,0,0,0,0,169,
scooby_state_403bfc|1|1 168,0,0,0,0,0,0,0,0,0,0,0,0,0,0,168,
scooby_state_403bfc|11|1 168,0,0,0,0,0,0,0,0,0,0,0,0,0,0,168,
scooby_state_403bf7|1|1 168,0,0,0,0,0,0,0,0,0,0,0,0,0,0,168,
scooby_state_403bf7|11|1 168,0,0,0,0,0,0,0,0,0,0,0,0,0,0,168,
scooby_state_403bfc|21|1 166,0,0,0,0,1,0,0,0,0,0,0,0,0,0,167,
scooby_state_403bfc|22|1 167,0,0,0,0,0,0,0,0,0,0,0,0,0,0,167,
scooby_state_403bf7|22|1 166,0,1,0,0,0,0,0,0,0,0,0,0,0,0,167,
scooby_state_403bfc|9|1 167,0,0,0,0,0,0,0,0,0,0,0,0,0,0,167,
scooby_state_403bf7|9|1 167,0,0,0,0,0,0,0,0,0,0,0,0,0,0,167,
scooby_state_403bf7|21|1 167,0,0,0,0,0,0,0,0,0,0,0,0,0,0,167,
scooby_state_403bfc|10|1 164,0,0,0,0,0,0,0,0,0,0,0,0,0,0,164,
scooby_state_403bf7|10|1 164,0,0,0,0,0,0,0,0,0,0,0,0,0,0,164,
scooby_state_403bfc|23|1 162,0,0,0,0,0,0,0,0,0,0,0,0,0,0,162,
scooby_state_403bf7|23|1 162,0,0,0,0,0,0,0,0,0,0,0,0,0,0,162,
scooby_state_403bf7|27|1 161,0,0,0,0,0,0,0,0,0,0,0,0,0,0,161,
scooby_state_403bfc|27|1 161,0,0,0,0,0,0,0,0,0,0,0,0,0,0,161,
scooby_state_403bf7|28|1 160,0,0,0,0,0,0,0,0,0,0,0,0,0,0,160,
scooby_state_403bfc|25|1 160,0,0,0,0,0,0,0,0,0,0,0,0,0,0,160,
scooby_state_403bfc|28|1 160,0,0,0,0,0,0,0,0,0,0,0,0,0,0,160,
scooby_state_403bf7|25|1 159,0,0,0,0,0,0,0,0,0,1,0,0,0,0,160,
scooby_state_403bfc|26|1 158,0,0,0,0,0,0,0,0,0,0,0,0,0,0,158,
scooby_state_403bf7|26|1 157,0,0,0,0,0,0,1,0,0,0,0,0,0,0,158,
scooby_state_403bfc|56|1 157,0,0,0,0,0,0,0,0,0,0,0,0,0,0,157,
scooby_state_403bf7|56|1 156,0,0,0,0,0,0,0,0,0,1,0,0,0,0,157,
scooby_state_403bfc|24|1 157,0,0,0,0,0,0,0,0,0,0,0,0,0,0,157,
scooby_state_403bf7|24|1 157,0,0,0,0,0,0,0,0,0,0,0,0,0,0,157,
scooby_state_403bf7|63|1 156,0,0,0,0,0,0,0,0,0,0,0,0,0,0,156,
scooby_state_403bfc|63|1 156,0,0,0,0,0,0,0,0,0,0,0,0,0,0,156,
scooby_state_403bfc|57|1 155,0,0,0,0,0,0,0,0,0,0,0,0,0,0,155,
scooby_state_403bf7|57|1 155,0,0,0,0,0,0,0,0,0,0,0,0,0,0,155,
scooby_state_403bf7|58|1 153,0,0,0,0,0,0,0,0,1,0,0,0,0,0,154,
scooby_state_403bfc|58|1 154,0,0,0,0,0,0,0,0,0,0,0,0,0,0,154,
scooby_state_403bfc|60|1 154,0,0,0,0,0,0,0,0,0,0,0,0,0,0,154,
scooby_state_403bf7|60|1 154,0,0,0,0,0,0,0,0,0,0,0,0,0,0,154,
scooby_state_403bfc|29|1 152,0,0,0,0,0,0,0,0,0,0,0,0,1,0,153,
scooby_state_403bfc|30|1 153,0,0,0,0,0,0,0,0,0,0,0,0,0,0,153,
scooby_state_403bf7|55|1 153,0,0,0,0,0,0,0,0,0,0,0,0,0,0,153,
scooby_state_403bf7|59|1 153,0,0,0,0,0,0,0,0,0,0,0,0,0,0,153,
scooby_state_403bfc|55|1 152,0,0,0,0,0,0,0,0,0,0,1,0,0,0,153,
scooby_state_403bfc|59|1 153,0,0,0,0,0,0,0,0,0,0,0,0,0,0,153,
scooby_state_403bf7|32|1 153,0,0,0,0,0,0,0,0,0,0,0,0,0,0,153,
scooby_state_403bfc|61|1 153,0,0,0,0,0,0,0,0,0,0,0,0,0,0,153,
scooby_state_403bf7|61|1 152,0,0,0,0,1,0,0,0,0,0,0,0,0,0,153,
scooby_state_403bf7|29|1 153,0,0,0,0,0,0,0,0,0,0,0,0,0,0,153,
scooby_state_403bfc|32|1 153,0,0,0,0,0,0,0,0,0,0,0,0,0,0,153,
scooby_state_403bf7|30|1 153,0,0,0,0,0,0,0,0,0,0,0,0,0,0,153,
scooby_state_403bfc|62|1 151,0,0,0,0,0,0,0,0,0,0,0,0,0,0,151,
scooby_state_403bf7|51|1 151,0,0,0,0,0,0,0,0,0,0,0,0,0,0,151,
scooby_state_403bf7|62|1 150,0,0,0,0,0,0,0,0,0,0,0,0,0,1,151,
scooby_state_403bfc|51|1 151,0,0,0,0,0,0,0,0,0,0,0,0,0,0,151,
scooby_state_403bf7|33|1 150,0,0,0,0,0,0,0,0,0,0,0,0,0,0,150,
scooby_state_403bf7|34|1 150,0,0,0,0,0,0,0,0,0,0,0,0,0,0,150,
scooby_state_403bfc|33|1 150,0,0,0,0,0,0,0,0,0,0,0,0,0,0,150,
scooby_state_403bfc|34|1 150,0,0,0,0,0,0,0,0,0,0,0,0,0,0,150,
scooby_state_403bfc|52|1 150,0,0,0,0,0,0,0,0,0,0,0,0,0,0,150,
scooby_state_403bf7|52|1 149,0,0,0,1,0,0,0,0,0,0,0,0,0,0,150,
scooby_state_403bfc|31|1 149,0,0,0,0,0,0,0,0,0,0,0,0,0,0,149,
scooby_state_403bf7|31|1 149,0,0,0,0,0,0,0,0,0,0,0,0,0,0,149,
scooby_state_403bfc|54|1 147,0,0,0,0,0,0,0,0,0,0,0,1,0,0,148,
scooby_state_403bf7|54|1 148,0,0,0,0,0,0,0,0,0,0,0,0,0,0,148,
scooby_state_403bf7|50|1 148,0,0,0,0,0,0,0,0,0,0,0,0,0,0,148,
scooby_state_403bfc|50|1 148,0,0,0,0,0,0,0,0,0,0,0,0,0,0,148,
scooby_state_403bf7|42|1 146,0,0,0,0,0,0,0,0,0,0,0,0,0,0,146,
scooby_state_403bfc|49|1 146,0,0,0,0,0,0,0,0,0,0,0,0,0,0,146,
scooby_state_403bfc|42|1 146,0,0,0,0,0,0,0,0,0,0,0,0,0,0,146,
scooby_state_403bf7|49|1 146,0,0,0,0,0,0,0,0,0,0,0,0,0,0,146,
scooby_state_403bf7|41|1 145,0,0,0,0,0,0,0,0,0,0,0,0,0,0,145,
scooby_state_403bf7|35|1 145,0,0,0,0,0,0,0,0,0,0,0,0,0,0,145,
scooby_state_403bfc|43|1 145,0,0,0,0,0,0,0,0,0,0,0,0,0,0,145,
scooby_state_403bf7|38|1 144,0,0,0,0,0,0,0,0,0,1,0,0,0,0,145,
scooby_state_403bf7|43|1 145,0,0,0,0,0,0,0,0,0,0,0,0,0,0,145,
scooby_state_403bfc|41|1 145,0,0,0,0,0,0,0,0,0,0,0,0,0,0,145,
scooby_state_403bfc|38|1 145,0,0,0,0,0,0,0,0,0,0,0,0,0,0,145,
scooby_state_403bfc|35|1 145,0,0,0,0,0,0,0,0,0,0,0,0,0,0,145,
scooby_state_403bf7|40|1 144,0,0,0,0,0,0,0,0,0,0,0,0,0,0,144,
scooby_state_403bfc|40|1 144,0,0,0,0,0,0,0,0,0,0,0,0,0,0,144,
scooby_state_403bf7|37|1 143,0,0,0,0,0,0,0,0,0,0,0,0,0,0,143,
scooby_state_403bfc|47|1 143,0,0,0,0,0,0,0,0,0,0,0,0,0,0,143,
scooby_state_403bf7|47|1 143,0,0,0,0,0,0,0,0,0,0,0,0,0,0,143,
scooby_state_403bfc|46|1 143,0,0,0,0,0,0,0,0,0,0,0,0,0,0,143,
scooby_state_403bfc|37|1 143,0,0,0,0,0,0,0,0,0,0,0,0,0,0,143,
scooby_state_403bf7|53|1 143,0,0,0,0,0,0,0,0,0,0,0,0,0,0,143,
scooby_state_403bfc|53|1 143,0,0,0,0,0,0,0,0,0,0,0,0,0,0,143,
scooby_state_403bf7|46|1 143,0,0,0,0,0,0,0,0,0,0,0,0,0,0,143,
scooby_state_403bfc|48|1 142,0,0,0,0,0,0,0,0,0,0,0,0,0,0,142,
scooby_state_403bf7|48|1 142,0,0,0,0,0,0,0,0,0,0,0,0,0,0,142,
scooby_state_403bfc|39|1 142,0,0,0,0,0,0,0,0,0,0,0,0,0,0,142,
scooby_state_403bf7|39|1 141,0,0,0,0,0,0,0,0,0,0,1,0,0,0,142,
scooby_state_403bfc|44|1 140,0,0,0,0,0,0,0,0,0,0,0,0,0,0,140,
scooby_state_403bf7|44|1 140,0,0,0,0,0,0,0,0,0,0,0,0,0,0,140,
scooby_state_403bf7|36|1 139,0,0,0,0,0,0,0,0,0,0,0,0,0,0,139,
scooby_state_403bfc|36|1 139,0,0,0,0,0,0,0,0,0,0,0,0,0,0,139,
scooby_state_403bfc|45|1 137,0,0,0,0,0,0,0,0,0,0,0,0,0,0,137,
scooby_state_403bf7|45|1 136,1,0,0,0,0,0,0,0,0,0,0,0,0,0,137,
scooby_state_401700|45|0 68,0,0,0,0,0,0,0,0,0,0,0,0,0,0,68,
scooby_state_401913|57|0 68,0,0,0,0,0,0,0,0,0,0,0,0,0,0,68,
scooby_state_40191b|56|-1 64,0,0,0,0,0,0,0,0,0,0,0,0,0,0,64,
scooby_state_418993|10|0 59,0,0,0,0,0,0,0,0,0,0,0,0,0,0,59,
scooby_state_401913|57|1 50,0,0,0,0,0,0,0,0,0,0,0,0,0,0,50,
scooby_state_401913|57|-1 50,0,0,0,0,0,0,0,0,0,0,0,0,0,0,50,
scooby_state_418981|11|1 43,0,0,1,2,0,0,0,0,0,0,0,0,0,0,46,
scooby_state_4016c8|21|0 29,3,0,4,0,0,3,0,1,1,0,0,4,0,0,45,
scooby_state_4016f8|58|1 40,0,0,0,0,0,0,0,0,0,0,0,0,0,0,40,
scooby_state_418993|10|-1 39,0,1,0,0,0,0,0,0,0,0,0,0,0,0,40,
scooby_state_4016c8|23|0 11,0,0,3,1,2,3,4,2,1,2,2,2,2,2,37,
scooby_state_418a8d|57|0 25,1,1,1,1,1,2,1,1,0,0,0,0,0,0,34,
scooby_state_41c997|27|1 32,0,0,0,0,0,1,0,0,0,0,0,0,0,0,33,
scooby_state_41c997|28|1 33,0,0,0,0,0,0,0,0,0,0,0,0,0,0,33,
scooby_state_41c997|29|1 33,0,0,0,0,0,0,0,0,0,0,0,0,0,0,33,
scooby_state_41c9a3|28|1 33,0,0,0,0,0,0,0,0,0,0,0,0,0,0,33,
scooby_state_41c9a3|29|1 32,0,0,0,0,0,0,1,0,0,0,0,0,0,0,33,
scooby_state_414cf0|10|1 32,0,0,0,0,0,0,0,0,0,0,0,0,0,0,32,
scooby_state_41c9a3|59|1 32,0,0,0,0,0,0,0,0,0,0,0,0,0,0,32,
scooby_state_414cf0|42|1 32,0,0,0,0,0,0,0,0,0,0,0,0,0,0,32,
scooby_state_41c997|57|1 31,0,0,0,0,1,0,0,0,0,0,0,0,0,0,32,
scooby_state_41c9a3|49|1 32,0,0,0,0,0,0,0,0,0,0,0,0,0,0,32,
scooby_state_414cf0|8|1 32,0,0,0,0,0,0,0,0,0,0,0,0,0,0,32,
scooby_state_414cf0|6|1 32,0,0,0,0,0,0,0,0,0,0,0,0,0,0,32,
scooby_state_414cf0|41|1 32,0,0,0,0,0,0,0,0,0,0,0,0,0,0,32,
scooby_state_41c9a3|16|1 32,0,0,0,0,0,0,0,0,0,0,0,0,0,0,32,
scooby_state_414cf0|5|1 32,0,0,0,0,0,0,0,0,0,0,0,0,0,0,32,
scooby_state_41c997|25|1 32,0,0,0,0,0,0,0,0,0,0,0,0,0,0,32,
scooby_state_41c9a3|52|1 32,0,0,0,0,0,0,0,0,0,0,0,0,0,0,32,
scooby_state_41c9a3|7|1 32,0,0,0,0,0,0,0,0,0,0,0,0,0,0,32,
scooby_state_414cf0|9|1 32,0,0,0,0,0,0,0,0,0,0,0,0,0,0,32,
scooby_state_41c997|6|1 32,0,0,0,0,0,0,0,0,0,0,0,0,0,0,32,
scooby_state_41c997|11|1 32,0,0,0,0,0,0,0,0,0,0,0,0,0,0,32,
scooby_state_41c9a3|3|1 32,0,0,0,0,0,0,0,0,0,0,0,0,0,0,32,
scooby_state_41c997|24|1 32,0,0,0,0,0,0,0,0,0,0,0,0,0,0,32,
scooby_state_41c9a3|50|1 32,0,0,0,0,0,0,0,0,0,0,0,0,0,0,32,
scooby_state_414cf0|59|1 32,0,0,0,0,0,0,0,0,0,0,0,0,0,0,32,
scooby_state_41c997|21|1 32,0,0,0,0,0,0,0,0,0,0,0,0,0,0,32,
scooby_state_41c9a3|55|1 32,0,0,0,0,0,0,0,0,0,0,0,0,0,0,32,
scooby_state_414cf0|37|1 32,0,0,0,0,0,0,0,0,0,0,0,0,0,0,32,
scooby_state_41c997|37|1 32,0,0,0,0,0,0,0,0,0,0,0,0,0,0,32,
scooby_state_41c9a3|42|1 32,0,0,0,0,0,0,0,0,0,0,0,0,0,0,32,
scooby_state_41c9a3|53|1 32,0,0,0,0,0,0,0,0,0,0,0,0,0,0,32,
scooby_state_41c997|23|1 32,0,0,0,0,0,0,0,0,0,0,0,0,0,0,32,
scooby_state_41c9a3|15|1 32,0,0,0,0,0,0,0,0,0,0,0,0,0,0,32,
scooby_state_41c9a3|31|1 32,0,0,0,0,0,0,0,0,0,0,0,0,0,0,32,
scooby_state_41c997|53|1 32,0,0,0,0,0,0,0,0,0,0,0,0,0,0,32,
scooby_state_41c9a3|25|1 32,0,0,0,0,0,0,0,0,0,0,0,0,0,0,32,
scooby_state_41c9a3|56|1 32,0,0,0,0,0,0,0,0,0,0,0,0,0,0,32,
scooby_state_41c9a3|14|1 32,0,0,0,0,0,0,0,0,0,0,0,0,0,0,32,
scooby_state_41c9a3|45|1 32,0,0,0,0,0,0,0,0,0,0,0,0,0,0,32,
scooby_state_414cf0|56|1 32,0,0,0,0,0,0,0,0,0,0,0,0,0,0,32,
scooby_state_41c997|58|1 32,0,0,0,0,0,0,0,0,0,0,0,0,0,0,32,
scooby_state_41c9a3|20|1 32,0,0,0,0,0,0,0,0,0,0,0,0,0,0,32,
scooby_state_41c997|61|1 32,0,0,0,0,0,0,0,0,0,0,0,0,0,0,32,
scooby_state_41c9a3|63|1 32,0,0,0,0,0,0,0,0,0,0,0,0,0,0,32,
scooby_state_41c9a3|30|1 31,0,0,0,0,0,1,0,0,0,0,0,0,0,0,32,
scooby_state_41c997|0|0 32,0,0,0,0,0,0,0,0,0,0,0,0,0,0,32,
scooby_state_41c997|9|1 32,0,0,0,0,0,0,0,0,0,0,0,0,0,0,32,
scooby_state_41c9a3|61|1 32,0,0,0,0,0,0,0,0,0,0,0,0,0,0,32,
scooby_state_41c997|45|1 32,0,0,0,0,0,0,0,0,0,0,0,0,0,0,32,
scooby_state_414cf0|1|1 32,0,0,0,0,0,0,0,0,0,0,0,0,0,0,32,
scooby_state_41c9a3|32|1 32,0,0,0,0,0,0,0,0,0,0,0,0,0,0,32,
scooby_state_41c997|7|1 32,0,0,0,0,0,0,0,0,0,0,0,0,0,0,32,
scooby_state_41c997|19|1 32,0,0,0,0,0,0,0,0,0,0,0,0,0,0,32,
scooby_state_41c997|10|1 32,0,0,0,0,0,0,0,0,0,0,0,0,0,0,32,
scooby_state_41c9a3|41|1 32,0,0,0,0,0,0,0,0,0,0,0,0,0,0,32,
scooby_state_41c9a3|9|1 32,0,0,0,0,0,0,0,0,0,0,0,0,0,0,32,
scooby_state_41c9a3|24|1 32,0,0,0,0,0,0,0,0,0,0,0,0,0,0,32,
scooby_state_41c997|50|1 32,0,0,0,0,0,0,0,0,0,0,0,0,0,0,32,
scooby_state_414cf0|12|1 32,0,0,0,0,0,0,0,0,0,0,0,0,0,0,32,
scooby_state_41c997|22|1 32,0,0,0,0,0,0,0,0,0,0,0,0,0,0,32,
scooby_state_41c9a3|26|1 32,0,0,0,0,0,0,0,0,0,0,0,0,0,0,32,
scooby_state_41c997|20|1 32,0,0,0,0,0,0,0,0,0,0,0,0,0,0,32,
scooby_state_41c997|4|1 32,0,0,0,0,0,0,0,0,0,0,0,0,0,0,32,
scooby_state_41c997|40|1 32,0,0,0,0,0,0,0,0,0,0,0,0,0,0,32,
scooby_state_41c9a3|39|1 32,0,0,0,0,0,0,0,0,0,0,0,0,0,0,32,
scooby_state_41c997|31|1 32,0,0,0,0,0,0,0,0,0,0,0,0,0,0,32,
scooby_state_41c997|13|1 32,0,0,0,0,0,0,0,0,0,0,0,0,0,0,32,
scooby_state_41c997|63|1 32,0,0,0,0,0,0,0,0,0,0,0,0,0,0,32,
scooby_state_41c9a3|33|1 32,0,0,0,0,0,0,0,0,0,0,0,0,0,0,32,
scooby_state_414cf0|38|1 32,0,0,0,0,0,0,0,0,0,0,0,0,0,0,32,
scooby_state_41c997|14|1 32,0,0,0,0,0,0,0,0,0,0,0,0,0,0,32,
scooby_state_41c997|16|1 31,0,0,0,0,1,0,0,0,0,0,0,0,0,0,32,
scooby_state_41c997|49|1 32,0,0,0,0,0,0,0,0,0,0,0,0,0,0,32,
scooby_state_41c9a3|13|1 32,0,0,0,0,0,0,0,0,0,0,0,0,0,0,32,
scooby_state_41c997|33|1 32,0,0,0,0,0,0,0,0,0,0,0,0,0,0,32,
scooby_state_41c9a3|38|1 32,0,0,0,0,0,0,0,0,0,0,0,0,0,0,32,
scooby_state_414cf0|3|1 32,0,0,0,0,0,0,0,0,0,0,0,0,0,0,32,
scooby_state_41c997|56|1 32,0,0,0,0,0,0,0,0,0,0,0,0,0,0,32,
scooby_state_41c9a3|44|1 32,0,0,0,0,0,0,0,0,0,0,0,0,0,0,32,
scooby_state_41c997|32|1 32,0,0,0,0,0,0,0,0,0,0,0,0,0,0,32,
scooby_state_41c9a3|60|1 32,0,0,0,0,0,0,0,0,0,0,0,0,0,0,32,
scooby_state_41c9a3|27|1 32,0,0,0,0,0,0,0,0,0,0,0,0,0,0,32,
scooby_state_41c9a3|17|1 32,0,0,0,0,0,0,0,0,0,0,0,0,0,0,32,
scooby_state_41c9a3|54|1 32,0,0,0,0,0,0,0,0,0,0,0,0,0,0,32,
scooby_state_414cf0|51|1 32,0,0,0,0,0,0,0,0,0,0,0,0,0,0,32,
scooby_state_41c997|52|1 32,0,0,0,0,0,0,0,0,0,0,0,0,0,0,32,
scooby_state_41c9a3|22|1 32,0,0,0,0,0,0,0,0,0,0,0,0,0,0,32,
scooby_state_414cf0|55|1 32,0,0,0,0,0,0,0,0,0,0,0,0,0,0,32,
scooby_state_41c997|1|1 32,0,0,0,0,0,0,0,0,0,0,0,0,0,0,32,
scooby_state_41c997|44|1 32,0,0,0,0,0,0,0,0,0,0,0,0,0,0,32,
scooby_state_41c997|3|1 32,0,0,0,0,0,0,0,0,0,0,0,0,0,0,32,
scooby_state_41c997|51|1 32,0,0,0,0,0,0,0,0,0,0,0,0,0,0,32,
scooby_state_41c997|42|1 32,0,0,0,0,0,0,0,0,0,0,0,0,0,0,32,
scooby_state_41c997|34|1 32,0,0,0,0,0,0,0,0,0,0,0,0,0,0,32,
scooby_state_41c9a3|6|1 32,0,0,0,0,0,0,0,0,0,0,0,0,0,0,32,
scooby_state_41c9a3|51|1 32,0,0,0,0,0,0,0,0,0,0,0,0,0,0,32,
scooby_state_41c997|60|1 32,0,0,0,0,0,0,0,0,0,0,0,0,0,0,32,
scooby_state_414cf0|48|1 32,0,0,0,0,0,0,0,0,0,0,0,0,0,0,32,
scooby_state_414cf0|25|1 32,0,0,0,0,0,0,0,0,0,0,0,0,0,0,32,
scooby_state_414cf0|26|1 32,0,0,0,0,0,0,0,0,0,0,0,0,0,0,32,
scooby_state_414cf0|27|1 32,0,0,0,0,0,0,0,0,0,0,0,0,0,0,32,
scooby_state_414cf0|28|1 32,0,0,0,0,0,0,0,0,0,0,0,0,0,0,32,
scooby_state_414cf0|29|1 32,0,0,0,0,0,0,0,0,0,0,0,0,0,0,32,
scooby_state_414cf0|30|1 31,0,0,1,0,0,0,0,0,0,0,0,0,0,0,32,
scooby_state_41c9a3|36|1 32,0,0,0,0,0,0,0,0,0,0,0,0,0,0,32,
scooby_state_41c997|8|1 32,0,0,0,0,0,0,0,0,0,0,0,0,0,0,32,
scooby_state_41c9a3|48|1 32,0,0,0,0,0,0,0,0,0,0,0,0,0,0,32,
scooby_state_41c997|54|1 32,0,0,0,0,0,0,0,0,0,0,0,0,0,0,32,
scooby_state_41c997|12|1 30,0,0,0,1,0,1,0,0,0,0,0,0,0,0,32,
scooby_state_41c9a3|1|1 32,0,0,0,0,0,0,0,0,0,0,0,0,0,0,32,
scooby_state_414cf0|53|1 32,0,0,0,0,0,0,0,0,0,0,0,0,0,0,32,
scooby_state_41c997|30|1 32,0,0,0,0,0,0,0,0,0,0,0,0,0,0,32,
scooby_state_41c9a3|46|1 32,0,0,0,0,0,0,0,0,0,0,0,0,0,0,32,
scooby_state_414cf0|33|1 32,0,0,0,0,0,0,0,0,0,0,0,0,0,0,32,
scooby_state_41c9a3|57|1 32,0,0,0,0,0,0,0,0,0,0,0,0,0,0,32,
scooby_state_414cf0|35|1 32,0,0,0,0,0,0,0,0,0,0,0,0,0,0,32,
scooby_state_41c997|62|1 32,0,0,0,0,0,0,0,0,0,0,0,0,0,0,32,
scooby_state_41c9a3|2|1 32,0,0,0,0,0,0,0,0,0,0,0,0,0,0,32,
scooby_state_41c9a3|8|1 32,0,0,0,0,0,0,0,0,0,0,0,0,0,0,32,
scooby_state_414cf0|11|1 32,0,0,0,0,0,0,0,0,0,0,0,0,0,0,32,
scooby_state_41c9a3|43|1 32,0,0,0,0,0,0,0,0,0,0,0,0,0,0,32,
scooby_state_41c9a3|5|1 32,0,0,0,0,0,0,0,0,0,0,0,0,0,0,32,
scooby_state_414cf0|60|1 32,0,0,0,0,0,0,0,0,0,0,0,0,0,0,32,
scooby_state_414cf0|49|1 32,0,0,0,0,0,0,0,0,0,0,0,0,0,0,32,
scooby_state_41c997|17|1 32,0,0,0,0,0,0,0,0,0,0,0,0,0,0,32,
scooby_state_41c997|46|1 31,1,0,0,0,0,0,0,0,0,0,0,0,0,0,32,
scooby_state_414cf0|47|1 32,0,0,0,0,0,0,0,0,0,0,0,0,0,0,32,
scooby_state_414cf0|13|1 32,0,0,0,0,0,0,0,0,0,0,0,0,0,0,32,
scooby_state_414cf0|14|1 32,0,0,0,0,0,0,0,0,0,0,0,0,0,0,32,
scooby_state_414cf0|15|1 32,0,0,0,0,0,0,0,0,0,0,0,0,0,0,32,
scooby_state_414cf0|16|1 32,0,0,0,0,0,0,0,0,0,0,0,0,0,0,32,
scooby_state_41c9a3|21|1 32,0,0,0,0,0,0,0,0,0,0,0,0,0,0,32,
scooby_state_41c997|2|1 32,0,0,0,0,0,0,0,0,0,0,0,0,0,0,32,
scooby_state_414cf0|32|1 31,0,0,0,0,0,0,0,0,0,0,1,0,0,0,32,
scooby_state_41c997|59|1 32,0,0,0,0,0,0,0,0,0,0,0,0,0,0,32,
scooby_state_414cf0|7|1 32,0,0,0,0,0,0,0,0,0,0,0,0,0,0,32,
scooby_state_41c997|41|1 32,0,0,0,0,0,0,0,0,0,0,0,0,0,0,32,
scooby_state_41c9a3|34|1 32,0,0,0,0,0,0,0,0,0,0,0,0,0,0,32,
scooby_state_41c9a3|62|1 32,0,0,0,0,0,0,0,0,0,0,0,0,0,0,32,
scooby_state_414cf0|61|1 32,0,0,0,0,0,0,0,0,0,0,0,0,0,0,32,
scooby_state_41c9a3|10|1 32,0,0,0,0,0,0,0,0,0,0,0,0,0,0,32,
scooby_state_414cf0|34|1 32,0,0,0,0,0,0,0,0,0,0,0,0,0,0,32,
scooby_state_41c997|55|1 32,0,0,0,0,0,0,0,0,0,0,0,0,0,0,32,
scooby_state_41c9a3|19|1 32,0,0,0,0,0,0,0,0,0,0,0,0,0,0,32,
scooby_state_414cf0|31|1 32,0,0,0,0,0,0,0,0,0,0,0,0,0,0,32,
scooby_state_414cf0|50|1 32,0,0,0,0,0,0,0,0,0,0,0,0,0,0,32,
scooby_state_414cf0|36|1 32,0,0,0,0,0,0,0,0,0,0,0,0,0,0,32,
scooby_state_414cf0|39|1 32,0,0,0,0,0,0,0,0,0,0,0,0,0,0,32,
scooby_state_414cf0|40|1 32,0,0,0,0,0,0,0,0,0,0,0,0,0,0,32,
scooby_state_414cf0|43|1 32,0,0,0,0,0,0,0,0,0,0,0,0,0,0,32,
scooby_state_414cf0|44|1 32,0,0,0,0,0,0,0,0,0,0,0,0,0,0,32,
scooby_state_414cf0|45|1 32,0,0,0,0,0,0,0,0,0,0,0,0,0,0,32,
scooby_state_41c9a3|58|1 32,0,0,0,0,0,0,0,0,0,0,0,0,0,0,32,
scooby_state_414cf0|46|1 32,0,0,0,0,0,0,0,0,0,0,0,0,0,0,32,
scooby_state_414cf0|0|0 32,0,0,0,0,0,0,0,0,0,0,0,0,0,0,32,
scooby_state_41c9a3|40|1 32,0,0,0,0,0,0,0,0,0,0,0,0,0,0,32,
scooby_state_414cf0|52|1 32,0,0,0,0,0,0,0,0,0,0,0,0,0,0,32,
scooby_state_414cf0|54|1 32,0,0,0,0,0,0,0,0,0,0,0,0,0,0,32,
scooby_state_414cf0|57|1 32,0,0,0,0,0,0,0,0,0,0,0,0,0,0,32,
scooby_state_414cf0|58|1 32,0,0,0,0,0,0,0,0,0,0,0,0,0,0,32,
scooby_state_414cf0|62|1 32,0,0,0,0,0,0,0,0,0,0,0,0,0,0,32,
scooby_state_41c9a3|12|1 32,0,0,0,0,0,0,0,0,0,0,0,0,0,0,32,
scooby_state_414cf0|63|1 31,0,0,0,0,0,0,0,0,1,0,0,0,0,0,32,
scooby_state_414cf0|4|1 32,0,0,0,0,0,0,0,0,0,0,0,0,0,0,32,
scooby_state_41c997|5|1 32,0,0,0,0,0,0,0,0,0,0,0,0,0,0,32,
scooby_state_41c997|26|1 32,0,0,0,0,0,0,0,0,0,0,0,0,0,0,32,
scooby_state_41c997|18|1 31,0,0,0,0,0,0,0,0,0,1,0,0,0,0,32,
scooby_state_41c997|35|1 32,0,0,0,0,0,0,0,0,0,0,0,0,0,0,32,
scooby_state_41c997|39|1 32,0,0,0,0,0,0,0,0,0,0,0,0,0,0,32,
scooby_state_41c997|15|1 32,0,0,0,0,0,0,0,0,0,0,0,0,0,0,32,
scooby_state_41c997|48|1 32,0,0,0,0,0,0,0,0,0,0,0,0,0,0,32,
scooby_state_41c9a3|0|0 32,0,0,0,0,0,0,0,0,0,0,0,0,0,0,32,
scooby_state_414cf0|2|1 32,0,0,0,0,0,0,0,0,0,0,0,0,0,0,32,
scooby_state_41c9a3|35|1 32,0,0,0,0,0,0,0,0,0,0,0,0,0,0,32,
scooby_state_41c9a3|23|1 32,0,0,0,0,0,0,0,0,0,0,0,0,0,0,32,
scooby_state_41c997|43|1 32,0,0,0,0,0,0,0,0,0,0,0,0,0,0,32,
scooby_state_41c9a3|11|1 32,0,0,0,0,0,0,0,0,0,0,0,0,0,0,32,
scooby_state_41c997|47|1 32,0,0,0,0,0,0,0,0,0,0,0,0,0,0,32,
scooby_state_41c9a3|18|1 31,0,0,0,0,0,0,0,1,0,0,0,0,0,0,32,
scooby_state_41c9a3|4|1 32,0,0,0,0,0,0,0,0,0,0,0,0,0,0,32,
scooby_state_41c9a3|47|1 32,0,0,0,0,0,0,0,0,0,0,0,0,0,0,32,
scooby_state_414cf0|22|1 31,0,0,0,0,0,0,0,0,0,0,0,0,0,0,31,
scooby_state_41c997|38|1 31,0,0,0,0,0,0,0,0,0,0,0,0,0,0,31,
scooby_state_414cf0|17|1 30,0,0,0,0,0,0,0,1,0,0,0,0,0,0,31,
scooby_state_414cf0|20|1 31,0,0,0,0,0,0,0,0,0,0,0,0,0,0,31,
scooby_state_41c997|36|1 31,0,0,0,0,0,0,0,0,0,0,0,0,0,0,31,
scooby_state_414cf0|24|1 31,0,0,0,0,0,0,0,0,0,0,0,0,0,0,31,
scooby_state_41c9a3|37|1 31,0,0,0,0,0,0,0,0,0,0,0,0,0,0,31,
scooby_state_414cf0|18|1 31,0,0,0,0,0,0,0,0,0,0,0,0,0,0,31,
scooby_state_414cf0|21|1 31,0,0,0,0,0,0,0,0,0,0,0,0,0,0,31,
scooby_state_414cf0|19|1 31,0,0,0,0,0,0,0,0,0,0,0,0,0,0,31,
scooby_state_414cf0|23|1 31,0,0,0,0,0,0,0,0,0,0,0,0,0,0,31,
scooby_state_403ce7|0|0 27,0,0,2,0,0,0,0,0,0,0,0,0,0,0,29,
scooby_state_403d10|0|0 29,0,0,0,0,0,0,0,0,0,0,0,0,0,0,29,
scooby_state_4016f8|58|2 0,3,1,1,2,3,2,0,0,2,1,5,1,1,5,27,
scooby_state_403ce7|1|1 20,0,1,0,0,0,0,0,0,0,0,0,0,0,0,21,
scooby_state_403d10|1|1 21,0,0,0,0,0,0,0,0,0,0,0,0,0,0,21,
scooby_state_418981|11|0 4,1,0,2,0,1,1,1,2,0,1,6,1,1,0,21,
scooby_state_403d10|2|1 21,0,0,0,0,0,0,0,0,0,0,0,0,0,0,21,
scooby_state_403ce7|2|1 21,0,0,0,0,0,0,0,0,0,0,0,0,0,0,21,
scooby_state_403ce7|26|3 19,0,0,0,0,0,0,0,0,0,0,0,0,0,0,19,
scooby_state_403bc0|53|8 0,0,0,1,1,0,0,0,0,0,0,0,0,0,17,19,
scooby_state_403ce7|52|3 19,0,0,0,0,0,0,0,0,0,0,0,0,0,0,19,
scooby_state_403ce7|56|3 18,0,0,0,0,0,0,0,0,0,0,0,1,0,0,19,
scooby_state_403ce7|41|3 19,0,0,0,0,0,0,0,0,0,0,0,0,0,0,19,
scooby_state_403ce7|27|3 18,0,0,0,0,0,1,0,0,0,0,0,0,0,0,19,
scooby_state_403ce7|31|3 19,0,0,0,0,0,0,0,0,0,0,0,0,0,0,19,
scooby_state_403ce7|55|3 19,0,0,0,0,0,0,0,0,0,0,0,0,0,0,19,
scooby_state_4016c8|22|0 3,0,1,0,1,2,0,0,0,3,3,3,0,3,0,19,
scooby_state_403ce7|51|3 19,0,0,0,0,0,0,0,0,0,0,0,0,0,0,19,
scooby_state_403ce7|36|3 19,0,0,0,0,0,0,0,0,0,0,0,0,0,0,19,
scooby_state_403ce7|61|3 19,0,0,0,0,0,0,0,0,0,0,0,0,0,0,19,
scooby_state_403ce7|7|3 18,0,0,0,0,0,0,0,0,0,0,0,0,0,0,18,
scooby_state_403ce7|29|3 18,0,0,0,0,0,0,0,0,0,0,0,0,0,0,18,
scooby_state_403ce7|33|3 18,0,0,0,0,0,0,0,0,0,0,0,0,0,0,18,
scooby_state_403ce7|38|3 18,0,0,0,0,0,0,0,0,0,0,0,0,0,0,18,
scooby_state_403ce7|43|3 18,0,0,0,0,0,0,0,0,0,0,0,0,0,0,18,
scooby_state_403ce7|16|3 18,0,0,0,0,0,0,0,0,0,0,0,0,0,0,18,
scooby_state_403ce7|3|3 18,0,0,0,0,0,0,0,0,0,0,0,0,0,0,18,
scooby_state_403ce7|23|3 18,0,0,0,0,0,0,0,0,0,0,0,0,0,0,18,
scooby_state_403ce7|28|3 18,0,0,0,0,0,0,0,0,0,0,0,0,0,0,18,
scooby_state_403ce7|4|3 18,0,0,0,0,0,0,0,0,0,0,0,0,0,0,18,
scooby_state_403ce7|17|3 18,0,0,0,0,0,0,0,0,0,0,0,0,0,0,18,
scooby_state_403ce7|57|3 18,0,0,0,0,0,0,0,0,0,0,0,0,0,0,18,
scooby_state_403ce7|13|3 18,0,0,0,0,0,0,0,0,0,0,0,0,0,0,18,
scooby_state_403ce7|21|3 18,0,0,0,0,0,0,0,0,0,0,0,0,0,0,18,
scooby_state_403ce7|32|3 18,0,0,0,0,0,0,0,0,0,0,0,0,0,0,18,
scooby_state_403ce7|12|3 18,0,0,0,0,0,0,0,0,0,0,0,0,0,0,18,
scooby_state_403ce7|18|3 18,0,0,0,0,0,0,0,0,0,0,0,0,0,0,18,
scooby_state_403ce7|22|3 18,0,0,0,0,0,0,0,0,0,0,0,0,0,0,18,
scooby_state_403ce7|46|3 18,0,0,0,0,0,0,0,0,0,0,0,0,0,0,18,
scooby_state_403ce7|30|3 18,0,0,0,0,0,0,0,0,0,0,0,0,0,0,18,
scooby_state_403ce7|37|3 17,0,0,0,0,0,0,0,0,0,0,0,0,0,0,17,
scooby_state_41c9af|3|1 17,0,0,0,0,0,0,0,0,0,0,0,0,0,0,17,
scooby_state_401700|45|-9 17,0,0,0,0,0,0,0,0,0,0,0,0,0,0,17,
scooby_state_403ce7|48|3 17,0,0,0,0,0,0,0,0,0,0,0,0,0,0,17,
scooby_state_403ce7|59|3 17,0,0,0,0,0,0,0,0,0,0,0,0,0,0,17,
scooby_state_403ce7|6|3 17,0,0,0,0,0,0,0,0,0,0,0,0,0,0,17,
scooby_state_403ce7|53|3 17,0,0,0,0,0,0,0,0,0,0,0,0,0,0,17,
scooby_state_41c9ce|17|1 17,0,0,0,0,0,0,0,0,0,0,0,0,0,0,17,
scooby_state_403ce7|35|3 17,0,0,0,0,0,0,0,0,0,0,0,0,0,0,17,
scooby_state_403ce7|60|3 17,0,0,0,0,0,0,0,0,0,0,0,0,0,0,17,
scooby_state_403ce7|9|3 17,0,0,0,0,0,0,0,0,0,0,0,0,0,0,17,
scooby_state_403ce7|25|3 17,0,0,0,0,0,0,0,0,0,0,0,0,0,0,17,
scooby_state_403ce7|47|3 17,0,0,0,0,0,0,0,0,0,0,0,0,0,0,17,
scooby_state_403ce7|19|3 17,0,0,0,0,0,0,0,0,0,0,0,0,0,0,17,
scooby_state_403ce7|58|3 17,0,0,0,0,0,0,0,0,0,0,0,0,0,0,17,
scooby_state_41c9ce|55|1 17,0,0,0,0,0,0,0,0,0,0,0,0,0,0,17,
scooby_state_403ce7|24|3 17,0,0,0,0,0,0,0,0,0,0,0,0,0,0,17,
scooby_state_403ce7|20|3 17,0,0,0,0,0,0,0,0,0,0,0,0,0,0,17,
scooby_state_403ce7|14|3 17,0,0,0,0,0,0,0,0,0,0,0,0,0,0,17,
scooby_state_403ce7|5|3 16,0,0,1,0,0,0,0,0,0,0,0,0,0,0,17,
scooby_state_403ce7|42|3 17,0,0,0,0,0,0,0,0,0,0,0,0,0,0,17,
scooby_state_403ce7|63|3 17,0,0,0,0,0,0,0,0,0,0,0,0,0,0,17,
scooby_state_403ce7|11|3 16,1,0,0,0,0,0,0,0,0,0,0,0,0,0,17,
scooby_state_403ce7|34|3 17,0,0,0,0,0,0,0,0,0,0,0,0,0,0,17,
scooby_state_403ce7|62|3 17,0,0,0,0,0,0,0,0,0,0,0,0,0,0,17,
scooby_state_41c9ce|16|1 17,0,0,0,0,0,0,0,0,0,0,0,0,0,0,17,
scooby_state_403ce7|8|3 17,0,0,0,0,0,0,0,0,0,0,0,0,0,0,17,
scooby_state_41c9ce|29|1 17,0,0,0,0,0,0,0,0,0,0,0,0,0,0,17,
scooby_state_403ce7|39|3 17,0,0,0,0,0,0,0,0,0,0,0,0,0,0,17,
scooby_state_403d10|36|3 17,0,0,0,0,0,0,0,0,0,0,0,0,0,0,17,
scooby_state_41c9ce|4|1 17,0,0,0,0,0,0,0,0,0,0,0,0,0,0,17,
scooby_state_403d10|41|3 17,0,0,0,0,0,0,0,0,0,0,0,0,0,0,17,
scooby_state_403ce7|44|3 17,0,0,0,0,0,0,0,0,0,0,0,0,0,0,17,
scooby_state_403d10|61|3 17,0,0,0,0,0,0,0,0,0,0,0,0,0,0,17,
scooby_state_41c9ce|42|1 17,0,0,0,0,0,0,0,0,0,0,0,0,0,0,17,
scooby_state_403ce7|40|3 17,0,0,0,0,0,0,0,0,0,0,0,0,0,0,17,
scooby_state_403ce7|45|3 17,0,0,0,0,0,0,0,0,0,0,0,0,0,0,17,
scooby_state_4016c8|19|0 9,0,0,0,0,0,0,0,0,0,1,1,1,1,4,17,
scooby_state_401700|45|-8 7,0,0,0,1,2,1,0,1,0,1,1,1,2,0,17,
scooby_state_403d10|56|3 17,0,0,0,0,0,0,0,0,0,0,0,0,0,0,17,
scooby_state_403ce7|54|3 17,0,0,0,0,0,0,0,0,0,0,0,0,0,0,17,
scooby_state_403d10|31|3 17,0,0,0,0,0,0,0,0,0,0,0,0,0,0,17,
scooby_state_403ce7|15|3 17,0,0,0,0,0,0,0,0,0,0,0,0,0,0,17,
scooby_state_403ce7|50|3 17,0,0,0,0,0,0,0,0,0,0,0,0,0,0,17,
scooby_state_41c9af|13|1 16,0,0,0,0,0,0,0,0,0,0,0,0,0,0,16,
scooby_state_41c9ce|25|1 16,0,0,0,0,0,0,0,0,0,0,0,0,0,0,16,
scooby_state_403d10|4|3 16,0,0,0,0,0,0,0,0,0,0,0,0,0,0,16,
scooby_state_41c9af|44|1 16,0,0,0,0,0,0,0,0,0,0,0,0,0,0,16,
scooby_state_403d10|21|3 16,0,0,0,0,0,0,0,0,0,0,0,0,0,0,16,
scooby_state_41c9ce|21|1 16,0,0,0,0,0,0,0,0,0,0,0,0,0,0,16,
scooby_state_403be3|0|0 16,0,0,0,0,0,0,0,0,0,0,0,0,0,0,16,
scooby_state_41c9af|32|1 16,0,0,0,0,0,0,0,0,0,0,0,0,0,0,16,
scooby_state_403d10|18|3 16,0,0,0,0,0,0,0,0,0,0,0,0,0,0,16,
scooby_state_41c9ce|9|1 16,0,0,0,0,0,0,0,0,0,0,0,0,0,0,16,
scooby_state_41c9ce|34|1 16,0,0,0,0,0,0,0,0,0,0,0,0,0,0,16,
scooby_state_403d10|55|3 16,0,0,0,0,0,0,0,0,0,0,0,0,0,0,16,
scooby_state_41c9af|27|1 16,0,0,0,0,0,0,0,0,0,0,0,0,0,0,16,
scooby_state_41c9ce|27|1 16,0,0,0,0,0,0,0,0,0,0,0,0,0,0,16,
scooby_state_41c9af|11|1 16,0,0,0,0,0,0,0,0,0,0,0,0,0,0,16,
scooby_state_41c9af|33|1 16,0,0,0,0,0,0,0,0,0,0,0,0,0,0,16,
scooby_state_41c9ce|53|1 16,0,0,0,0,0,0,0,0,0,0,0,0,0,0,16,
scooby_state_41c9af|26|1 16,0,0,0,0,0,0,0,0,0,0,0,0,0,0,16,
scooby_state_41c9af|5|1 16,0,0,0,0,0,0,0,0,0,0,0,0,0,0,16,
scooby_state_403d10|52|3 16,0,0,0,0,0,0,0,0,0,0,0,0,0,0,16,
scooby_state_41c9af|60|1 16,0,0,0,0,0,0,0,0,0,0,0,0,0,0,16,
scooby_state_41c9ce|3|1 16,0,0,0,0,0,0,0,0,0,0,0,0,0,0,16,
scooby_state_41c9af|15|1 16,0,0,0,0,0,0,0,0,0,0,0,0,0,0,16,
scooby_state_403d10|51|3 16,0,0,0,0,0,0,0,0,0,0,0,0,0,0,16,
scooby_state_403d10|50|3 16,0,0,0,0,0,0,0,0,0,0,0,0,0,0,16,
scooby_state_41c9af|41|1 16,0,0,0,0,0,0,0,0,0,0,0,0,0,0,16,
scooby_state_403d10|33|3 16,0,0,0,0,0,0,0,0,0,0,0,0,0,0,16,
scooby_state_41c9af|23|1 16,0,0,0,0,0,0,0,0,0,0,0,0,0,0,16,
scooby_state_41c9ce|61|1 16,0,0,0,0,0,0,0,0,0,0,0,0,0,0,16,
scooby_state_41c9af|37|1 15,0,0,0,0,0,0,0,0,0,0,0,0,1,0,16,
scooby_state_41c9ce|33|1 16,0,0,0,0,0,0,0,0,0,0,0,0,0,0,16,
scooby_state_41c9af|40|1 16,0,0,0,0,0,0,0,0,0,0,0,0,0,0,16,
scooby_state_403d10|28|3 16,0,0,0,0,0,0,0,0,0,0,0,0,0,0,16,
scooby_state_41c9af|20|1 16,0,0,0,0,0,0,0,0,0,0,0,0,0,0,16,
scooby_state_41c9ce|48|1 16,0,0,0,0,0,0,0,0,0,0,0,0,0,0,16,
scooby_state_403d10|57|3 16,0,0,0,0,0,0,0,0,0,0,0,0,0,0,16,
scooby_state_41c9af|53|1 16,0,0,0,0,0,0,0,0,0,0,0,0,0,0,16,
scooby_state_41c9ce|8|1 16,0,0,0,0,0,0,0,0,0,0,0,0,0,0,16,
scooby_state_41c9af|24|1 16,0,0,0,0,0,0,0,0,0,0,0,0,0,0,16,
scooby_state_41c9ce|10|1 16,0,0,0,0,0,0,0,0,0,0,0,0,0,0,16,
scooby_state_41c9ce|19|1 16,0,0,0,0,0,0,0,0,0,0,0,0,0,0,16,
scooby_state_41c9ce|38|1 16,0,0,0,0,0,0,0,0,0,0,0,0,0,0,16,
scooby_state_41c9af|6|1 16,0,0,0,0,0,0,0,0,0,0,0,0,0,0,16,
scooby_state_41c9ce|57|1 16,0,0,0,0,0,0,0,0,0,0,0,0,0,0,16,
scooby_state_41c9af|45|1 16,0,0,0,0,0,0,0,0,0,0,0,0,0,0,16,
scooby_state_41c9ce|45|1 16,0,0,0,0,0,0,0,0,0,0,0,0,0,0,16,
scooby_state_403d10|7|3 16,0,0,0,0,0,0,0,0,0,0,0,0,0,0,16,
scooby_state_41c9af|36|1 16,0,0,0,0,0,0,0,0,0,0,0,0,0,0,16,
scooby_state_403d10|43|3 15,0,0,0,0,0,0,0,0,0,0,1,0,0,0,16,
scooby_state_41c9af|10|1 16,0,0,0,0,0,0,0,0,0,0,0,0,0,0,16,
scooby_state_41c9ce|63|1 16,0,0,0,0,0,0,0,0,0,0,0,0,0,0,16,
scooby_state_403d10|27|3 16,0,0,0,0,0,0,0,0,0,0,0,0,0,0,16,
scooby_state_41c9af|19|1 16,0,0,0,0,0,0,0,0,0,0,0,0,0,0,16,
scooby_state_41c9af|47|1 16,0,0,0,0,0,0,0,0,0,0,0,0,0,0,16,
scooby_state_41c9ce|60|1 15,0,0,0,1,0,0,0,0,0,0,0,0,0,0,16,
scooby_state_403d10|22|3 16,0,0,0,0,0,0,0,0,0,0,0,0,0,0,16,
scooby_state_41c9ce|7|1 16,0,0,0,0,0,0,0,0,0,0,0,0,0,0,16,
scooby_state_41c9ce|50|1 16,0,0,0,0,0,0,0,0,0,0,0,0,0,0,16,
scooby_state_41c9af|43|1 16,0,0,0,0,0,0,0,0,0,0,0,0,0,0,16,
scooby_state_41c9af|31|1 16,0,0,0,0,0,0,0,0,0,0,0,0,0,0,16,
scooby_state_41c9af|55|1 16,0,0,0,0,0,0,0,0,0,0,0,0,0,0,16,
scooby_state_41c9af|59|1 16,0,0,0,0,0,0,0,0,0,0,0,0,0,0,16,
scooby_state_41c9af|62|1 16,0,0,0,0,0,0,0,0,0,0,0,0,0,0,16,
scooby_state_41c9ce|31|1 16,0,0,0,0,0,0,0,0,0,0,0,0,0,0,16,
scooby_state_41c9af|49|1 16,0,0,0,0,0,0,0,0,0,0,0,0,0,0,16,
scooby_state_41c9af|58|1 16,0,0,0,0,0,0,0,0,0,0,0,0,0,0,16,
scooby_state_41c9af|52|1 16,0,0,0,0,0,0,0,0,0,0,0,0,0,0,16,
scooby_state_41c9af|54|1 16,0,0,0,0,0,0,0,0,0,0,0,0,0,0,16,
scooby_state_41c9af|22|1 16,0,0,0,0,0,0,0,0,0,0,0,0,0,0,16,
scooby_state_41c9ce|2|1 16,0,0,0,0,0,0,0,0,0,0,0,0,0,0,16,
scooby_state_41c9ce|30|1 16,0,0,0,0,0,0,0,0,0,0,0,0,0,0,16,
scooby_state_41c9ce|26|1 16,0,0,0,0,0,0,0,0,0,0,0,0,0,0,16,
scooby_state_41c9af|21|1 16,0,0,0,0,0,0,0,0,0,0,0,0,0,0,16,
scooby_state_41c9ce|1|1 16,0,0,0,0,0,0,0,0,0,0,0,0,0,0,16,
scooby_state_41c9ce|13|1 16,0,0,0,0,0,0,0,0,0,0,0,0,0,0,16,
scooby_state_41c9ce|40|1 16,0,0,0,0,0,0,0,0,0,0,0,0,0,0,16,
scooby_state_41c9ce|18|1 16,0,0,0,0,0,0,0,0,0,0,0,0,0,0,16,
scooby_state_41c9ce|44|1 16,0,0,0,0,0,0,0,0,0,0,0,0,0,0,16,
scooby_state_41c9af|2|1 16,0,0,0,0,0,0,0,0,0,0,0,0,0,0,16,
scooby_state_41c9af|18|1 16,0,0,0,0,0,0,0,0,0,0,0,0,0,0,16,
scooby_state_403ce7|49|3 16,0,0,0,0,0,0,0,0,0,0,0,0,0,0,16,
scooby_state_41c9ce|59|1 16,0,0,0,0,0,0,0,0,0,0,0,0,0,0,16,
scooby_state_403d10|17|3 16,0,0,0,0,0,0,0,0,0,0,0,0,0,0,16,
scooby_state_41c9af|56|1 16,0,0,0,0,0,0,0,0,0,0,0,0,0,0,16,
scooby_state_418aae|0|0 16,0,0,0,0,0,0,0,0,0,0,0,0,0,0,16,
scooby_state_41c9af|46|1 16,0,0,0,0,0,0,0,0,0,0,0,0,0,0,16,
scooby_state_41c9af|9|1 16,0,0,0,0,0,0,0,0,0,0,0,0,0,0,16,
scooby_state_41c9af|30|1 16,0,0,0,0,0,0,0,0,0,0,0,0,0,0,16,
scooby_state_41c9af|51|1 16,0,0,0,0,0,0,0,0,0,0,0,0,0,0,16,
scooby_state_41c9af|57|1 16,0,0,0,0,0,0,0,0,0,0,0,0,0,0,16,
scooby_state_41c9af|50|1 16,0,0,0,0,0,0,0,0,0,0,0,0,0,0,16,
scooby_state_41c9af|0|0 16,0,0,0,0,0,0,0,0,0,0,0,0,0,0,16,
scooby_state_41c9ce|23|1 16,0,0,0,0,0,0,0,0,0,0,0,0,0,0,16,
scooby_state_41c9ce|28|1 16,0,0,0,0,0,0,0,0,0,0,0,0,0,0,16,
scooby_state_41c9af|29|1 16,0,0,0,0,0,0,0,0,0,0,0,0,0,0,16,
scooby_state_41c9ce|46|1 16,0,0,0,0,0,0,0,0,0,0,0,0,0,0,16,
scooby_state_41c9ce|52|1 15,0,0,0,0,0,0,0,0,0,0,0,0,1,0,16,
scooby_state_41c9af|34|1 16,0,0,0,0,0,0,0,0,0,0,0,0,0,0,16,
scooby_state_41c9ce|15|1 16,0,0,0,0,0,0,0,0,0,0,0,0,0,0,16,
scooby_state_41c9af|12|1 16,0,0,0,0,0,0,0,0,0,0,0,0,0,0,16,
scooby_state_41c9af|48|1 16,0,0,0,0,0,0,0,0,0,0,0,0,0,0,16,
scooby_state_41c9ce|51|1 16,0,0,0,0,0,0,0,0,0,0,0,0,0,0,16,
scooby_state_403bd3|41|1 16,0,0,0,0,0,0,0,0,0,0,0,0,0,0,16,
scooby_state_403bd3|0|0 16,0,0,0,0,0,0,0,0,0,0,0,0,0,0,16,
scooby_state_41c9ce|0|0 16,0,0,0,0,0,0,0,0,0,0,0,0,0,0,16,
scooby_state_41c9af|63|1 16,0,0,0,0,0,0,0,0,0,0,0,0,0,0,16,
scooby_state_41c9ce|54|1 16,0,0,0,0,0,0,0,0,0,0,0,0,0,0,16,
scooby_state_41c9af|7|1 16,0,0,0,0,0,0,0,0,0,0,0,0,0,0,16,
scooby_state_41c9af|16|1 16,0,0,0,0,0,0,0,0,0,0,0,0,0,0,16,
scooby_state_403d10|46|3 16,0,0,0,0,0,0,0,0,0,0,0,0,0,0,16,
scooby_state_41c9ce|32|1 15,0,0,0,0,0,0,1,0,0,0,0,0,0,0,16,
scooby_state_41c9ce|20|1 16,0,0,0,0,0,0,0,0,0,0,0,0,0,0,16,
scooby_state_403d10|23|3 16,0,0,0,0,0,0,0,0,0,0,0,0,0,0,16,
scooby_state_41c9ce|22|1 16,0,0,0,0,0,0,0,0,0,0,0,0,0,0,16,
scooby_state_41c9af|17|1 16,0,0,0,0,0,0,0,0,0,0,0,0,0,0,16,
scooby_state_41c9af|38|1 16,0,0,0,0,0,0,0,0,0,0,0,0,0,0,16,
scooby_state_41c9ce|43|1 16,0,0,0,0,0,0,0,0,0,0,0,0,0,0,16,
scooby_state_41c9ce|12|1 16,0,0,0,0,0,0,0,0,0,0,0,0,0,0,16,
scooby_state_41c9ce|47|1 16,0,0,0,0,0,0,0,0,0,0,0,0,0,0,16,
scooby_state_41c9ce|58|1 16,0,0,0,0,0,0,0,0,0,0,0,0,0,0,16,
scooby_state_41c9ce|35|1 16,0,0,0,0,0,0,0,0,0,0,0,0,0,0,16,
scooby_state_41c9af|28|1 16,0,0,0,0,0,0,0,0,0,0,0,0,0,0,16,
scooby_state_41c9af|1|1 16,0,0,0,0,0,0,0,0,0,0,0,0,0,0,16,
scooby_state_403d10|38|3 16,0,0,0,0,0,0,0,0,0,0,0,0,0,0,16,
scooby_state_41c9af|61|1 16,0,0,0,0,0,0,0,0,0,0,0,0,0,0,16,
scooby_state_41c9ce|41|1 16,0,0,0,0,0,0,0,0,0,0,0,0,0,0,16,
scooby_state_41c9ce|14|1 16,0,0,0,0,0,0,0,0,0,0,0,0,0,0,16,
scooby_state_41c9ce|6|1 16,0,0,0,0,0,0,0,0,0,0,0,0,0,0,16,
scooby_state_403d10|32|3 16,0,0,0,0,0,0,0,0,0,0,0,0,0,0,16,
scooby_state_41c9af|14|1 16,0,0,0,0,0,0,0,0,0,0,0,0,0,0,16,
scooby_state_403d10|26|3 16,0,0,0,0,0,0,0,0,0,0,0,0,0,0,16,
scooby_state_41c9af|25|1 16,0,0,0,0,0,0,0,0,0,0,0,0,0,0,16,
scooby_state_403ce7|10|3 16,0,0,0,0,0,0,0,0,0,0,0,0,0,0,16,
scooby_state_41c9af|42|1 16,0,0,0,0,0,0,0,0,0,0,0,0,0,0,16,
scooby_state_41c9ce|56|1 16,0,0,0,0,0,0,0,0,0,0,0,0,0,0,16,
scooby_state_41c9af|8|1 16,0,0,0,0,0,0,0,0,0,0,0,0,0,0,16,
scooby_state_41c9af|35|1 16,0,0,0,0,0,0,0,0,0,0,0,0,0,0,16,
scooby_state_41c9ce|5|1 16,0,0,0,0,0,0,0,0,0,0,0,0,0,0,16,
scooby_state_41c9ce|39|1 16,0,0,0,0,0,0,0,0,0,0,0,0,0,0,16,
scooby_state_41c9af|4|1 16,0,0,0,0,0,0,0,0,0,0,0,0,0,0,16,
scooby_state_403d10|5|3 15,0,0,0,0,0,0,0,0,0,0,0,0,0,0,15,
scooby_state_403d10|14|3 15,0,0,0,0,0,0,0,0,0,0,0,0,0,0,15,
scooby_state_41c9ce|11|1 15,0,0,0,0,0,0,0,0,0,0,0,0,0,0,15,
scooby_state_403d10|6|3 15,0,0,0,0,0,0,0,0,0,0,0,0,0,0,15,
scooby_state_403d10|53|3 15,0,0,0,0,0,0,0,0,0,0,0,0,0,0,15,
scooby_state_403d10|24|3 15,0,0,0,0,0,0,0,0,0,0,0,0,0,0,15,
scooby_state_403d10|40|3 15,0,0,0,0,0,0,0,0,0,0,0,0,0,0,15,
scooby_state_403d10|29|3 15,0,0,0,0,0,0,0,0,0,0,0,0,0,0,15,
scooby_state_403d10|30|3 15,0,0,0,0,0,0,0,0,0,0,0,0,0,0,15,
scooby_state_403d10|19|3 15,0,0,0,0,0,0,0,0,0,0,0,0,0,0,15,
scooby_state_403d10|58|3 15,0,0,0,0,0,0,0,0,0,0,0,0,0,0,15,
scooby_state_403d10|9|3 15,0,0,0,0,0,0,0,0,0,0,0,0,0,0,15,
scooby_state_403d10|44|3 15,0,0,0,0,0,0,0,0,0,0,0,0,0,0,15,
scooby_state_403d10|25|3 15,0,0,0,0,0,0,0,0,0,0,0,0,0,0,15,
scooby_state_403d10|20|3 15,0,0,0,0,0,0,0,0,0,0,0,0,0,0,15,
scooby_state_403d10|45|3 15,0,0,0,0,0,0,0,0,0,0,0,0,0,0,15,
scooby_state_403d10|42|3 15,0,0,0,0,0,0,0,0,0,0,0,0,0,0,15,
scooby_state_403d10|12|3 15,0,0,0,0,0,0,0,0,0,0,0,0,0,0,15,
scooby_state_403bd3|40|1 15,0,0,0,0,0,0,0,0,0,0,0,0,0,0,15,
scooby_state_403d10|47|3 14,0,0,0,0,0,1,0,0,0,0,0,0,0,0,15,
scooby_state_403d10|60|3 15,0,0,0,0,0,0,0,0,0,0,0,0,0,0,15,
scooby_state_403d10|11|3 15,0,0,0,0,0,0,0,0,0,0,0,0,0,0,15,
scooby_state_403d10|59|3 15,0,0,0,0,0,0,0,0,0,0,0,0,0,0,15,
scooby_state_41c9ce|24|1 15,0,0,0,0,0,0,0,0,0,0,0,0,0,0,15,
scooby_state_41c9ce|49|1 15,0,0,0,0,0,0,0,0,0,0,0,0,0,0,15,
scooby_state_41c9af|39|1 15,0,0,0,0,0,0,0,0,0,0,0,0,0,0,15,
scooby_state_403d10|3|3 15,0,0,0,0,0,0,0,0,0,0,0,0,0,0,15,
scooby_state_403d10|13|3 15,0,0,0,0,0,0,0,0,0,0,0,0,0,0,15,
scooby_state_403d10|48|3 15,0,0,0,0,0,0,0,0,0,0,0,0,0,0,15,
scooby_state_403cef|49|-2 15,0,0,0,0,0,0,0,0,0,0,0,0,0,0,15,
scooby_state_403d10|35|3 15,0,0,0,0,0,0,0,0,0,0,0,0,0,0,15,
scooby_state_403d10|34|3 15,0,0,0,0,0,0,0,0,0,0,0,0,0,0,15,
scooby_state_4016c8|18|0 1,1,1,1,3,2,2,2,1,1,0,0,0,0,0,15,
scooby_state_403d10|63|3 15,0,0,0,0,0,0,0,0,0,0,0,0,0,0,15,
scooby_state_403d10|39|3 15,0,0,0,0,0,0,0,0,0,0,0,0,0,0,15,
scooby_state_403d10|62|3 15,0,0,0,0,0,0,0,0,0,0,0,0,0,0,15,
scooby_state_41c9ce|62|1 15,0,0,0,0,0,0,0,0,0,0,0,0,0,0,15,
scooby_state_403d10|8|3 15,0,0,0,0,0,0,0,0,0,0,0,0,0,0,15,
scooby_state_403d10|16|3 15,0,0,0,0,0,0,0,0,0,0,0,0,0,0,15,
scooby_state_403d10|37|3 15,0,0,0,0,0,0,0,0,0,0,0,0,0,0,15,
scooby_state_4016c8|25|0 0,0,0,2,3,3,0,0,4,0,0,0,0,0,3,15,
scooby_state_403cef|18|-2 14,0,0,0,0,0,0,0,0,0,0,0,0,0,0,14,
scooby_state_403cef|15|-2 14,0,0,0,0,0,0,0,0,0,0,0,0,0,0,14,
scooby_state_403d10|49|3 14,0,0,0,0,0,0,0,0,0,0,0,0,0,0,14,
scooby_state_41c9ce|36|1 14,0,0,0,0,0,0,0,0,0,0,0,0,0,0,14,
scooby_state_403cef|23|-2 14,0,0,0,0,0,0,0,0,0,0,0,0,0,0,14,
scooby_state_403cef|4|-2 14,0,0,0,0,0,0,0,0,0,0,0,0,0,0,14,
scooby_state_403d10|15|3 14,0,0,0,0,0,0,0,0,0,0,0,0,0,0,14,
scooby_state_403cef|52|-2 14,0,0,0,0,0,0,0,0,0,0,0,0,0,0,14,
scooby_state_403cef|63|1 13,0,0,0,0,0,0,0,1,0,0,0,0,0,0,14,
scooby_state_403cef|43|-2 14,0,0,0,0,0,0,0,0,0,0,0,0,0,0,14,
scooby_state_403cdf|63|1 14,0,0,0,0,0,0,0,0,0,0,0,0,0,0,14,
scooby_state_403cef|53|-2 14,0,0,0,0,0,0,0,0,0,0,0,0,0,0,14,
scooby_state_403cef|30|-2 14,0,0,0,0,0,0,0,0,0,0,0,0,0,0,14,
scooby_state_4144b0|54|9 3,0,1,0,1,0,0,0,0,0,0,9,0,0,0,14,
scooby_state_403cef|40|-2 14,0,0,0,0,0,0,0,0,0,0,0,0,0,0,14,
scooby_state_403cef|54|-2 14,0,0,0,0,0,0,0,0,0,0,0,0,0,0,14,
scooby_state_403cef|25|-2 14,0,0,0,0,0,0,0,0,0,0,0,0,0,0,14,
scooby_state_403cef|28|-2 14,0,0,0,0,0,0,0,0,0,0,0,0,0,0,14,
scooby_state_403cef|35|-2 14,0,0,0,0,0,0,0,0,0,0,0,0,0,0,14,
scooby_state_403cef|58|-2 14,0,0,0,0,0,0,0,0,0,0,0,0,0,0,14,
scooby_state_4016c8|20|0 5,0,2,0,0,1,0,0,0,0,3,2,0,1,0,14,
scooby_state_403cef|24|-2 14,0,0,0,0,0,0,0,0,0,0,0,0,0,0,14,
scooby_state_403cef|38|-2 14,0,0,0,0,0,0,0,0,0,0,0,0,0,0,14,
scooby_state_403d10|54|3 14,0,0,0,0,0,0,0,0,0,0,0,0,0,0,14,
scooby_state_403cef|29|-2 14,0,0,0,0,0,0,0,0,0,0,0,0,0,0,14,
scooby_state_403cef|13|-2 14,0,0,0,0,0,0,0,0,0,0,0,0,0,0,14,
scooby_state_403cef|10|-2 14,0,0,0,0,0,0,0,0,0,0,0,0,0,0,14,
scooby_state_403d10|10|3 14,0,0,0,0,0,0,0,0,0,0,0,0,0,0,14,
scooby_state_403cef|1|-2 14,0,0,0,0,0,0,0,0,0,0,0,0,0,0,14,
scooby_state_403cef|0|-2 14,0,0,0,0,0,0,0,0,0,0,0,0,0,0,14,
scooby_state_403cef|33|-2 14,0,0,0,0,0,0,0,0,0,0,0,0,0,0,14,
scooby_state_41c9ce|37|1 14,0,0,0,0,0,0,0,0,0,0,0,0,0,0,14,
scooby_state_403cef|20|-2 14,0,0,0,0,0,0,0,0,0,0,0,0,0,0,14,
scooby_state_403cdf|28|-2 10,3,0,0,0,0,0,0,0,0,0,0,0,0,0,13,
scooby_state_403bd3|42|1 13,0,0,0,0,0,0,0,0,0,0,0,0,0,0,13,
scooby_state_403cef|14|-2 13,0,0,0,0,0,0,0,0,0,0,0,0,0,0,13,
scooby_state_403cef|37|-2 13,0,0,0,0,0,0,0,0,0,0,0,0,0,0,13,
scooby_state_403cef|59|-2 13,0,0,0,0,0,0,0,0,0,0,0,0,0,0,13,
scooby_state_403cef|57|-2 13,0,0,0,0,0,0,0,0,0,0,0,0,0,0,13,
scooby_state_403cdf|38|-2 10,3,0,0,0,0,0,0,0,0,0,0,0,0,0,13,
scooby_state_403cef|26|-2 13,0,0,0,0,0,0,0,0,0,0,0,0,0,0,13,
scooby_state_403cdf|4|-2 12,1,0,0,0,0,0,0,0,0,0,0,0,0,0,13,
scooby_state_403cef|48|-2 13,0,0,0,0,0,0,0,0,0,0,0,0,0,0,13,
scooby_state_401700|45|-10 0,0,4,1,2,0,0,0,0,1,0,4,0,0,1,13,
scooby_state_403cdf|48|-2 12,1,0,0,0,0,0,0,0,0,0,0,0,0,0,13,
scooby_state_414693|57|0 6,0,0,0,0,0,0,0,1,0,0,1,3,1,1,13,
scooby_state_403cdf|15|-2 12,1,0,0,0,0,0,0,0,0,0,0,0,0,0,13,
scooby_state_403bd3|63|1 13,0,0,0,0,0,0,0,0,0,0,0,0,0,0,13,
scooby_state_403cef|47|-2 13,0,0,0,0,0,0,0,0,0,0,0,0,0,0,13,
scooby_state_403cef|21|-2 13,0,0,0,0,0,0,0,0,0,0,0,0,0,0,13,
scooby_state_403cef|32|-2 13,0,0,0,0,0,0,0,0,0,0,0,0,0,0,13,
scooby_state_403cdf|33|-2 10,3,0,0,0,0,0,0,0,0,0,0,0,0,0,13,
scooby_state_403cdf|1|-2 10,3,0,0,0,0,0,0,0,0,0,0,0,0,0,13,
scooby_state_403cef|3|-2 13,0,0,0,0,0,0,0,0,0,0,0,0,0,0,13,
scooby_state_403cef|11|-2 13,0,0,0,0,0,0,0,0,0,0,0,0,0,0,13,
scooby_state_403cdf|43|-2 11,2,0,0,0,0,0,0,0,0,0,0,0,0,0,13,
scooby_state_403cef|6|-2 13,0,0,0,0,0,0,0,0,0,0,0,0,0,0,13,
scooby_state_403cdf|58|-2 11,2,0,0,0,0,0,0,0,0,0,0,0,0,0,13,
scooby_state_403cdf|54|-2 12,1,0,0,0,0,0,0,0,0,0,0,0,0,0,13,
scooby_state_403cef|42|-2 13,0,0,0,0,0,0,0,0,0,0,0,0,0,0,13,
scooby_state_403cef|27|-2 13,0,0,0,0,0,0,0,0,0,0,0,0,0,0,13,
scooby_state_403cef|8|-2 13,0,0,0,0,0,0,0,0,0,0,0,0,0,0,13,
scooby_state_4144b0|54|0 7,0,0,0,0,0,0,0,0,0,0,6,0,0,0,13,
scooby_state_403cef|19|-2 13,0,0,0,0,0,0,0,0,0,0,0,0,0,0,13,
scooby_state_403cdf|35|-2 11,2,0,0,0,0,0,0,0,0,0,0,0,0,0,13,
scooby_state_403cdf|30|-2 11,2,0,0,0,0,0,0,0,0,0,0,0,0,0,13,
scooby_state_403cef|50|-2 13,0,0,0,0,0,0,0,0,0,0,0,0,0,0,13,
scooby_state_4016f8|58|0 11,0,0,1,0,0,0,0,0,0,0,0,1,0,0,13,
scooby_state_403cdf|40|-2 11,2,0,0,0,0,0,0,0,0,0,0,0,0,0,13,
scooby_state_403cef|9|-2 13,0,0,0,0,0,0,0,0,0,0,0,0,0,0,13,
scooby_state_403cef|39|-2 13,0,0,0,0,0,0,0,0,0,0,0,0,0,0,13,
scooby_state_403cdf|25|-2 12,1,0,0,0,0,0,0,0,0,0,0,0,0,0,13,
scooby_state_403cdf|53|-2 11,2,0,0,0,0,0,0,0,0,0,0,0,0,0,13,
scooby_state_403c3d|0|0 13,0,0,0,0,0,0,0,0,0,0,0,0,0,0,13,
scooby_state_403cdf|20|-2 12,1,0,0,0,0,0,0,0,0,0,0,0,0,0,13,
scooby_state_403cdf|18|-2 10,3,0,0,0,0,0,0,0,0,0,0,0,0,0,13,
scooby_state_403cef|16|-2 13,0,0,0,0,0,0,0,0,0,0,0,0,0,0,13,
scooby_state_403cef|44|-2 13,0,0,0,0,0,0,0,0,0,0,0,0,0,0,13,
scooby_state_403cdf|29|-2 12,1,0,0,0,0,0,0,0,0,0,0,0,0,0,13,
scooby_state_403cdf|23|-2 10,3,0,0,0,0,0,0,0,0,0,0,0,0,0,13,
scooby_state_403cdf|49|-2 12,1,0,0,0,0,0,0,0,0,0,0,0,0,0,13,
scooby_state_403cef|34|-2 13,0,0,0,0,0,0,0,0,0,0,0,0,0,0,13,
scooby_state_403cef|55|-2 13,0,0,0,0,0,0,0,0,0,0,0,0,0,0,13,
scooby_state_403cef|45|-2 13,0,0,0,0,0,0,0,0,0,0,0,0,0,0,13,
scooby_state_403cef|60|-2 13,0,0,0,0,0,0,0,0,0,0,0,0,0,0,13,
scooby_state_403cef|5|-2 13,0,0,0,0,0,0,0,0,0,0,0,0,0,0,13,
scooby_state_403bd3|46|1 12,0,0,0,0,0,0,0,0,0,0,0,0,0,0,12,
scooby_state_403cdf|34|-2 12,0,0,0,0,0,0,0,0,0,0,0,0,0,0,12,
scooby_state_403cdf|47|-2 8,4,0,0,0,0,0,0,0,0,0,0,0,0,0,12,
scooby_state_403bd3|48|1 12,0,0,0,0,0,0,0,0,0,0,0,0,0,0,12,
scooby_state_403cdf|39|-2 12,0,0,0,0,0,0,0,0,0,0,0,0,0,0,12,
scooby_state_403bd3|31|1 12,0,0,0,0,0,0,0,0,0,0,0,0,0,0,12,
scooby_state_403cef|7|-2 12,0,0,0,0,0,0,0,0,0,0,0,0,0,0,12,
scooby_state_403cdf|55|-2 9,3,0,0,0,0,0,0,0,0,0,0,0,0,0,12,
scooby_state_403bd3|56|1 12,0,0,0,0,0,0,0,0,0,0,0,0,0,0,12,
scooby_state_403cdf|60|-2 9,3,0,0,0,0,0,0,0,0,0,0,0,0,0,12,
scooby_state_403cef|12|-2 12,0,0,0,0,0,0,0,0,0,0,0,0,0,0,12,
scooby_state_403cdf|52|-2 7,5,0,0,0,0,0,0,0,0,0,0,0,0,0,12,
scooby_state_403cef|17|-2 12,0,0,0,0,0,0,0,0,0,0,0,0,0,0,12,
scooby_state_403cdf|50|-2 10,2,0,0,0,0,0,0,0,0,0,0,0,0,0,12,
scooby_state_403cef|22|-2 12,0,0,0,0,0,0,0,0,0,0,0,0,0,0,12,
scooby_state_403bd3|25|1 12,0,0,0,0,0,0,0,0,0,0,0,0,0,0,12,
scooby_state_403cdf|5|-2 12,0,0,0,0,0,0,0,0,0,0,0,0,0,0,12,
scooby_state_403cdf|13|-2 8,4,0,0,0,0,0,0,0,0,0,0,0,0,0,12,
scooby_state_403cdf|44|-2 12,0,0,0,0,0,0,0,0,0,0,0,0,0,0,12,
scooby_state_403bd3|11|1 12,0,0,0,0,0,0,0,0,0,0,0,0,0,0,12,
scooby_state_403cef|46|-2 12,0,0,0,0,0,0,0,0,0,0,0,0,0,0,12,
scooby_state_403cef|61|-2 12,0,0,0,0,0,0,0,0,0,0,0,0,0,0,12,
scooby_state_403bd3|49|1 12,0,0,0,0,0,0,0,0,0,0,0,0,0,0,12,
scooby_state_403cef|31|-2 12,0,0,0,0,0,0,0,0,0,0,0,0,0,0,12,
scooby_state_403cef|56|-2 12,0,0,0,0,0,0,0,0,0,0,0,0,0,0,12,
scooby_state_403bdb|0|0 12,0,0,0,0,0,0,0,0,0,0,0,0,0,0,12,
scooby_state_403cef|36|-2 12,0,0,0,0,0,0,0,0,0,0,0,0,0,0,12,
scooby_state_403cef|51|-2 12,0,0,0,0,0,0,0,0,0,0,0,0,0,0,12,
scooby_state_403cdf|42|-2 8,4,0,0,0,0,0,0,0,0,0,0,0,0,0,12,
scooby_state_403bd3|30|1 12,0,0,0,0,0,0,0,0,0,0,0,0,0,0,12,
scooby_state_403cdf|14|-2 12,0,0,0,0,0,0,0,0,0,0,0,0,0,0,12,
scooby_state_403cdf|0|-2 12,0,0,0,0,0,0,0,0,0,0,0,0,0,0,12,
scooby_state_403cdf|11|-2 9,3,0,0,0,0,0,0,0,0,0,0,0,0,0,12,
scooby_state_403cdf|19|-2 12,0,0,0,0,0,0,0,0,0,0,0,0,0,0,12,
scooby_state_403cdf|16|-2 8,4,0,0,0,0,0,0,0,0,0,0,0,0,0,12,
scooby_state_403cdf|57|-2 7,5,0,0,0,0,0,0,0,0,0,0,0,0,0,12,
scooby_state_403cdf|21|-2 7,5,0,0,0,0,0,0,0,0,0,0,0,0,0,12,
scooby_state_403cef|2|-2 12,0,0,0,0,0,0,0,0,0,0,0,0,0,0,12,
scooby_state_403bd3|37|1 12,0,0,0,0,0,0,0,0,0,0,0,0,0,0,12,
scooby_state_403cdf|26|-2 8,4,0,0,0,0,0,0,0,0,0,0,0,0,0,12,
scooby_state_403cdf|10|-2 11,1,0,0,0,0,0,0,0,0,0,0,0,0,0,12,
scooby_state_403cdf|37|-2 8,4,0,0,0,0,0,0,0,0,0,0,0,0,0,12,
scooby_state_403cdf|59|-2 11,1,0,0,0,0,0,0,0,0,0,0,0,0,0,12,
scooby_state_403cdf|24|-2 11,1,0,0,0,0,0,0,0,0,0,0,0,0,0,12,
scooby_state_403cdf|3|-2 8,4,0,0,0,0,0,0,0,0,0,0,0,0,0,12,
scooby_state_403cdf|32|-2 7,5,0,0,0,0,0,0,0,0,0,0,0,0,0,12,
scooby_state_403cdf|6|-2 9,3,0,0,0,0,0,0,0,0,0,0,0,0,0,12,
scooby_state_41468b|55|10 12,0,0,0,0,0,0,0,0,0,0,0,0,0,0,12,
scooby_state_403cdf|9|-2 12,0,0,0,0,0,0,0,0,0,0,0,0,0,0,12,
scooby_state_403cdf|45|-2 10,2,0,0,0,0,0,0,0,0,0,0,0,0,0,12,
scooby_state_403cdf|8|-2 8,4,0,0,0,0,0,0,0,0,0,0,0,0,0,12,
scooby_state_403cef|41|-2 12,0,0,0,0,0,0,0,0,0,0,0,0,0,0,12,
scooby_state_403cdf|36|-2 8,3,0,0,0,0,0,0,0,0,0,0,0,0,0,11,
scooby_state_403cdf|31|-2 7,4,0,0,0,0,0,0,0,0,0,0,0,0,0,11,
scooby_state_403cdf|46|-2 6,5,0,0,0,0,0,0,0,0,0,0,0,0,0,11,
scooby_state_403cdf|41|-2 7,4,0,0,0,0,0,0,0,0,0,0,0,0,0,11,
scooby_state_403cdf|61|-2 7,4,0,0,0,0,0,0,0,0,0,0,0,0,0,11,
scooby_state_403cdf|27|-2 6,5,0,0,0,0,0,0,0,0,0,0,0,0,0,11,
scooby_state_403bf0|13|0 10,1,0,0,0,0,0,0,0,0,0,0,0,0,0,11,
scooby_state_403cdf|22|-2 7,4,0,0,0,0,0,0,0,0,0,0,0,0,0,11,
scooby_state_403cdf|17|-2 7,4,0,0,0,0,0,0,0,0,0,0,0,0,0,11,
scooby_state_403bd3|44|1 11,0,0,0,0,0,0,0,0,0,0,0,0,0,0,11,
scooby_state_403bd3|8|1 11,0,0,0,0,0,0,0,0,0,0,0,0,0,0,11,
scooby_state_403bd3|53|1 11,0,0,0,0,0,0,0,0,0,0,0,0,0,0,11,
scooby_state_403be3|1|1 11,0,0,0,0,0,0,0,0,0,0,0,0,0,0,11,
scooby_state_403bd3|54|1 11,0,0,0,0,0,0,0,0,0,0,0,0,0,0,11,
scooby_state_403cdf|56|-2 7,4,0,0,0,0,0,0,0,0,0,0,0,0,0,11,
scooby_state_4189a2|0|0 11,0,0,0,0,0,0,0,0,0,0,0,0,0,0,11,
scooby_state_401742|46|0 11,0,0,0,0,0,0,0,0,0,0,0,0,0,0,11,
scooby_state_403cdf|2|-2 6,5,0,0,0,0,0,0,0,0,0,0,0,0,0,11,
scooby_state_403cdf|7|-2 6,5,0,0,0,0,0,0,0,0,0,0,0,0,0,11,
scooby_state_4146a6|33|0 11,0,0,0,0,0,0,0,0,0,0,0,0,0,0,11,
scooby_state_403cdf|12|-2 7,4,0,0,0,0,0,0,0,0,0,0,0,0,0,11,
scooby_state_401742|26|0 11,0,0,0,0,0,0,0,0,0,0,0,0,0,0,11,
scooby_state_403cdf|51|-2 7,4,0,0,0,0,0,0,0,0,0,0,0,0,0,11,
scooby_state_403bd3|27|1 11,0,0,0,0,0,0,0,0,0,0,0,0,0,0,11,
scooby_state_403bd3|28|1 11,0,0,0,0,0,0,0,0,0,0,0,0,0,0,11,
scooby_state_403bd3|57|1 11,0,0,0,0,0,0,0,0,0,0,0,0,0,0,11,
scooby_state_403bf7|10|0 10,0,0,0,0,0,0,0,0,0,0,0,0,0,0,10,
scooby_state_403d10|51|1 10,0,0,0,0,0,0,0,0,0,0,0,0,0,0,10,
scooby_state_40c12e|51|-6 10,0,0,0,0,0,0,0,0,0,0,0,0,0,0,10,
scooby_state_403bd3|22|1 10,0,0,0,0,0,0,0,0,0,0,0,0,0,0,10,
scooby_state_403bd3|34|1 10,0,0,0,0,0,0,0,0,0,0,0,0,0,0,10,
scooby_state_403bfc|1|0 10,0,0,0,0,0,0,0,0,0,0,0,0,0,0,10,
scooby_state_401742|25|0 10,0,0,0,0,0,0,0,0,0,0,0,0,0,0,10,
scooby_state_403bd3|62|1 10,0,0,0,0,0,0,0,0,0,0,0,0,0,0,10,
scooby_state_403bd3|58|1 10,0,0,0,0,0,0,0,0,0,0,0,0,0,0,10,
scooby_state_403d10|37|1 10,0,0,0,0,0,0,0,0,0,0,0,0,0,0,10,
scooby_state_40c056|57|-6 3,5,0,0,1,1,0,0,0,0,0,0,0,0,0,10,
scooby_state_403bd3|50|1 10,0,0,0,0,0,0,0,0,0,0,0,0,0,0,10,
scooby_state_403bfc|10|0 10,0,0,0,0,0,0,0,0,0,0,0,0,0,0,10,
scooby_state_403be3|6|1 10,0,0,0,0,0,0,0,0,0,0,0,0,0,0,10,
scooby_state_403bd3|33|1 10,0,0,0,0,0,0,0,0,0,0,0,0,0,0,10,
scooby_state_403d10|17|1 10,0,0,0,0,0,0,0,0,0,0,0,0,0,0,10,
scooby_state_40191b|56|3 10,0,0,0,0,0,0,0,0,0,0,0,0,0,0,10,
scooby_state_403bd3|39|1 10,0,0,0,0,0,0,0,0,0,0,0,0,0,0,10,
scooby_state_403bd3|45|1 10,0,0,0,0,0,0,0,0,0,0,0,0,0,0,10,
scooby_state_403d10|22|1 9,0,0,0,0,0,1,0,0,0,0,0,0,0,0,10,
scooby_state_403bd3|12|1 10,0,0,0,0,0,0,0,0,0,0,0,0,0,0,10,
scooby_state_403bf7|1|0 10,0,0,0,0,0,0,0,0,0,0,0,0,0,0,10,
scooby_state_403d10|47|1 10,0,0,0,0,0,0,0,0,0,0,0,0,0,0,10,
scooby_state_403bd3|43|1 10,0,0,0,0,0,0,0,0,0,0,0,0,0,0,10,
scooby_state_40fb46|33|0 5,0,0,0,0,0,1,1,0,2,1,0,0,0,0,10,
scooby_state_403d10|8|1 10,0,0,0,0,0,0,0,0,0,0,0,0,0,0,10,
scooby_state_403d10|12|1 10,0,0,0,0,0,0,0,0,0,0,0,0,0,0,10,
scooby_state_403d10|3|1 10,0,0,0,0,0,0,0,0,0,0,0,0,0,0,10,
scooby_state_403d10|42|1 10,0,0,0,0,0,0,0,0,0,0,0,0,0,0,10,
scooby_state_403d10|62|1 9,0,0,0,0,0,0,0,0,0,0,0,0,0,0,9,
scooby_state_403bd3|32|1 9,0,0,0,0,0,0,0,0,0,0,0,0,0,0,9,
scooby_state_403d10|34|1 9,0,0,0,0,0,0,0,0,0,0,0,0,0,0,9,
scooby_state_403ce7|8|1 9,0,0,0,0,0,0,0,0,0,0,0,0,0,0,9,
scooby_state_403d10|48|1 9,0,0,0,0,0,0,0,0,0,0,0,0,0,0,9,
scooby_state_403d10|50|1 9,0,0,0,0,0,0,0,0,0,0,0,0,0,0,9,
scooby_state_403ce7|17|1 9,0,0,0,0,0,0,0,0,0,0,0,0,0,0,9,
scooby_state_403d10|5|1 9,0,0,0,0,0,0,0,0,0,0,0,0,0,0,9,
scooby_state_403d10|60|1 9,0,0,0,0,0,0,0,0,0,0,0,0,0,0,9,
scooby_state_403d10|44|1 9,0,0,0,0,0,0,0,0,0,0,0,0,0,0,9,
scooby_state_4146a6|4|0 8,0,0,1,0,0,0,0,0,0,0,0,0,0,0,9,
scooby_state_403d10|40|1 9,0,0,0,0,0,0,0,0,0,0,0,0,0,0,9,
scooby_state_403d10|49|1 9,0,0,0,0,0,0,0,0,0,0,0,0,0,0,9,
scooby_state_403be3|2|1 9,0,0,0,0,0,0,0,0,0,0,0,0,0,0,9,
scooby_state_403ce7|42|1 9,0,0,0,0,0,0,0,0,0,0,0,0,0,0,9,
scooby_state_403bd3|20|1 9,0,0,0,0,0,0,0,0,0,0,0,0,0,0,9,
scooby_state_403d10|35|1 9,0,0,0,0,0,0,0,0,0,0,0,0,0,0,9,
scooby_state_403bd3|52|1 9,0,0,0,0,0,0,0,0,0,0,0,0,0,0,9,
scooby_state_403d10|15|1 8,0,0,0,0,0,0,0,1,0,0,0,0,0,0,9,
scooby_state_403d10|16|1 9,0,0,0,0,0,0,0,0,0,0,0,0,0,0,9,
scooby_state_418aae|6|1 9,0,0,0,0,0,0,0,0,0,0,0,0,0,0,9,
scooby_state_403bd3|51|1 9,0,0,0,0,0,0,0,0,0,0,0,0,0,0,9,
scooby_state_403d10|11|1 9,0,0,0,0,0,0,0,0,0,0,0,0,0,0,9,
scooby_state_403bd3|21|1 9,0,0,0,0,0,0,0,0,0,0,0,0,0,0,9,
scooby_state_403be3|46|1 9,0,0,0,0,0,0,0,0,0,0,0,0,0,0,9,
scooby_state_40bf8c|43|-1 9,0,0,0,0,0,0,0,0,0,0,0,0,0,0,9,
scooby_state_4146a6|35|0 9,0,0,0,0,0,0,0,0,0,0,0,0,0,0,9,
scooby_state_403bd3|36|1 9,0,0,0,0,0,0,0,0,0,0,0,0,0,0,9,
scooby_state_403be3|58|1 8,1,0,0,0,0,0,0,0,0,0,0,0,0,0,9,
scooby_state_403d10|27|1 9,0,0,0,0,0,0,0,0,0,0,0,0,0,0,9,
scooby_state_403d10|6|1 9,0,0,0,0,0,0,0,0,0,0,0,0,0,0,9,
scooby_state_403d10|45|1 9,0,0,0,0,0,0,0,0,0,0,0,0,0,0,9,
scooby_state_403d10|7|1 9,0,0,0,0,0,0,0,0,0,0,0,0,0,0,9,
scooby_state_403d10|46|1 9,0,0,0,0,0,0,0,0,0,0,0,0,0,0,9,
scooby_state_403bd3|61|1 9,0,0,0,0,0,0,0,0,0,0,0,0,0,0,9,
scooby_state_4146a6|51|0 9,0,0,0,0,0,0,0,0,0,0,0,0,0,0,9,
scooby_state_403d10|19|1 9,0,0,0,0,0,0,0,0,0,0,0,0,0,0,9,
scooby_state_403bf7|18|0 9,0,0,0,0,0,0,0,0,0,0,0,0,0,0,9,
scooby_state_403ce7|51|1 9,0,0,0,0,0,0,0,0,0,0,0,0,0,0,9,
scooby_state_403d10|30|1 9,0,0,0,0,0,0,0,0,0,0,0,0,0,0,9,
scooby_state_403d10|52|1 9,0,0,0,0,0,0,0,0,0,0,0,0,0,0,9,
scooby_state_403ce7|37|1 8,0,0,0,0,0,0,0,0,0,0,0,0,1,0,9,
scooby_state_418aae|15|1 9,0,0,0,0,0,0,0,0,0,0,0,0,0,0,9,
scooby_state_403bfc|18|0 9,0,0,0,0,0,0,0,0,0,0,0,0,0,0,9,
scooby_state_403d10|20|1 9,0,0,0,0,0,0,0,0,0,0,0,0,0,0,9,
scooby_state_403bd3|5|1 9,0,0,0,0,0,0,0,0,0,0,0,0,0,0,9,
scooby_state_403d10|13|1 9,0,0,0,0,0,0,0,0,0,0,0,0,0,0,9,
scooby_state_40fb2b|43|0 4,1,1,0,1,1,1,0,0,0,0,0,0,0,0,9,
scooby_state_403cef|62|1 9,0,0,0,0,0,0,0,0,0,0,0,0,0,0,9,
scooby_state_41468b|55|2 0,1,0,0,0,0,0,0,0,0,0,0,8,0,0,9,
scooby_state_403be3|49|1 9,0,0,0,0,0,0,0,0,0,0,0,0,0,0,9,
scooby_state_403ce7|47|1 9,0,0,0,0,0,0,0,0,0,0,0,0,0,0,9,
scooby_state_403bd3|10|1 9,0,0,0,0,0,0,0,0,0,0,0,0,0,0,9,
scooby_state_403d10|56|1 9,0,0,0,0,0,0,0,0,0,0,0,0,0,0,9,
scooby_state_403bf0|14|0 9,0,0,0,0,0,0,0,0,0,0,0,0,0,0,9,
scooby_state_403d10|10|1 9,0,0,0,0,0,0,0,0,0,0,0,0,0,0,9,
scooby_state_403bd3|55|1 9,0,0,0,0,0,0,0,0,0,0,0,0,0,0,9,
scooby_state_403bd3|16|1 9,0,0,0,0,0,0,0,0,0,0,0,0,0,0,9,
scooby_state_403d10|55|1 9,0,0,0,0,0,0,0,0,0,0,0,0,0,0,9,
scooby_state_403d10|14|1 9,0,0,0,0,0,0,0,0,0,0,0,0,0,0,9,
scooby_state_403bd3|18|1 9,0,0,0,0,0,0,0,0,0,0,0,0,0,0,9,
scooby_state_40faf0|11|0 2,0,0,0,0,3,2,1,0,0,0,0,1,0,0,9,
scooby_state_403ce7|12|1 9,0,0,0,0,0,0,0,0,0,0,0,0,0,0,9,
scooby_state_403be3|38|1 9,0,0,0,0,0,0,0,0,0,0,0,0,0,0,9,
scooby_state_403ce7|22|1 9,0,0,0,0,0,0,0,0,0,0,0,0,0,0,9,
scooby_state_403d10|9|1 9,0,0,0,0,0,0,0,0,0,0,0,0,0,0,9,
scooby_state_403d10|25|1 9,0,0,0,0,0,0,0,0,0,0,0,0,0,0,9,
scooby_state_401810|41|0 9,0,0,0,0,0,0,0,0,0,0,0,0,0,0,9,
scooby_state_403bd3|26|1 9,0,0,0,0,0,0,0,0,0,0,0,0,0,0,9,
scooby_state_40c056|44|-2 9,0,0,0,0,0,0,0,0,0,0,0,0,0,0,9,
scooby_state_418aae|54|1 9,0,0,0,0,0,0,0,0,0,0,0,0,0,0,9,
scooby_state_403bd3|29|1 9,0,0,0,0,0,0,0,0,0,0,0,0,0,0,9,
scooby_state_403be3|62|1 9,0,0,0,0,0,0,0,0,0,0,0,0,0,0,9,
scooby_state_403d10|32|1 9,0,0,0,0,0,0,0,0,0,0,0,0,0,0,9,
scooby_state_418aae|63|1 9,0,0,0,0,0,0,0,0,0,0,0,0,0,0,9,
scooby_state_403bd3|9|1 9,0,0,0,0,0,0,0,0,0,0,0,0,0,0,9,
scooby_state_40191b|56|0 9,0,0,0,0,0,0,0,0,0,0,0,0,0,0,9,
scooby_state_403d10|53|1 9,0,0,0,0,0,0,0,0,0,0,0,0,0,0,9,
scooby_state_403d10|54|1 9,0,0,0,0,0,0,0,0,0,0,0,0,0,0,9,
scooby_state_4146a6|53|0 9,0,0,0,0,0,0,0,0,0,0,0,0,0,0,9,
scooby_state_403d10|39|1 9,0,0,0,0,0,0,0,0,0,0,0,0,0,0,9,
scooby_state_403ce7|6|1 8,0,0,0,0,0,0,0,0,0,0,0,0,0,0,8,
scooby_state_403ce7|19|1 8,0,0,0,0,0,0,0,0,0,0,0,0,0,0,8,
scooby_state_40bfd6|24|0 0,1,0,0,0,2,0,0,1,0,0,2,0,1,1,8,
scooby_state_403ce7|9|1 8,0,0,0,0,0,0,0,0,0,0,0,0,0,0,8,
scooby_state_403bd3|17|1 8,0,0,0,0,0,0,0,0,0,0,0,0,0,0,8,
scooby_state_403bf7|21|0 8,0,0,0,0,0,0,0,0,0,0,0,0,0,0,8,
scooby_state_40fb2b|52|0 4,0,0,0,0,1,0,0,0,0,0,0,3,0,0,8,
scooby_state_418aae|1|1 8,0,0,0,0,0,0,0,0,0,0,0,0,0,0,8,
scooby_state_403d10|33|1 8,0,0,0,0,0,0,0,0,0,0,0,0,0,0,8,
scooby_state_403be3|5|0 8,0,0,0,0,0,0,0,0,0,0,0,0,0,0,8,
scooby_state_403bd3|6|1 8,0,0,0,0,0,0,0,0,0,0,0,0,0,0,8,
scooby_state_403bfc|21|0 8,0,0,0,0,0,0,0,0,0,0,0,0,0,0,8,
scooby_state_403ce7|32|1 8,0,0,0,0,0,0,0,0,0,0,0,0,0,0,8,
scooby_state_403ce7|3|1 8,0,0,0,0,0,0,0,0,0,0,0,0,0,0,8,
scooby_state_4146a6|47|0 7,0,0,0,1,0,0,0,0,0,0,0,0,0,0,8,
scooby_state_403d10|23|1 8,0,0,0,0,0,0,0,0,0,0,0,0,0,0,8,
scooby_state_418ab6|12|1 8,0,0,0,0,0,0,0,0,0,0,0,0,0,0,8,
scooby_state_403ce7|48|1 8,0,0,0,0,0,0,0,0,0,0,0,0,0,0,8,
scooby_state_4146a6|62|0 8,0,0,0,0,0,0,0,0,0,0,0,0,0,0,8,
scooby_state_403ce7|60|1 8,0,0,0,0,0,0,0,0,0,0,0,0,0,0,8,
scooby_state_403ce7|10|1 8,0,0,0,0,0,0,0,0,0,0,0,0,0,0,8,
scooby_state_403d10|61|1 8,0,0,0,0,0,0,0,0,0,0,0,0,0,0,8,
scooby_state_403ce7|7|1 8,0,0,0,0,0,0,0,0,0,0,0,0,0,0,8,
scooby_state_403d10|63|1 8,0,0,0,0,0,0,0,0,0,0,0,0,0,0,8,
scooby_state_403bd3|24|1 8,0,0,0,0,0,0,0,0,0,0,0,0,0,0,8,
scooby_state_418aae|46|1 8,0,0,0,0,0,0,0,0,0,0,0,0,0,0,8,
scooby_state_403be3|7|1 8,0,0,0,0,0,0,0,0,0,0,0,0,0,0,8,
scooby_state_403d10|26|1 8,0,0,0,0,0,0,0,0,0,0,0,0,0,0,8,
scooby_state_403be3|22|1 8,0,0,0,0,0,0,0,0,0,0,0,0,0,0,8,
scooby_state_418abe|62|1 8,0,0,0,0,0,0,0,0,0,0,0,0,0,0,8,
scooby_state_418aae|5|0 8,0,0,0,0,0,0,0,0,0,0,0,0,0,0,8,
scooby_state_41899e|19|0 8,0,0,0,0,0,0,0,0,0,0,0,0,0,0,8,
scooby_state_40191b|56|-2 8,0,0,0,0,0,0,0,0,0,0,0,0,0,0,8,
scooby_state_403be3|23|1 8,0,0,0,0,0,0,0,0,0,0,0,0,0,0,8,
scooby_state_418ab6|61|1 8,0,0,0,0,0,0,0,0,0,0,0,0,0,0,8,
scooby_state_403ce7|14|1 8,0,0,0,0,0,0,0,0,0,0,0,0,0,0,8,
scooby_state_401742|29|0 8,0,0,0,0,0,0,0,0,0,0,0,0,0,0,8,
scooby_state_40bf32|42|-1 6,0,0,2,0,0,0,0,0,0,0,0,0,0,0,8,
scooby_state_403c3d|1|1 7,0,0,0,0,0,0,0,1,0,0,0,0,0,0,8,
scooby_state_403d10|21|1 8,0,0,0,0,0,0,0,0,0,0,0,0,0,0,8,
scooby_state_418abe|13|1 8,0,0,0,0,0,0,0,0,0,0,0,0,0,0,8,
scooby_state_418aae|14|1 8,0,0,0,0,0,0,0,0,0,0,0,0,0,0,8,
scooby_state_403ce7|49|1 8,0,0,0,0,0,0,0,0,0,0,0,0,0,0,8,
scooby_state_403ce7|11|1 8,0,0,0,0,0,0,0,0,0,0,0,0,0,0,8,
scooby_state_403ce7|25|1 8,0,0,0,0,0,0,0,0,0,0,0,0,0,0,8,
scooby_state_403ce7|54|1 8,0,0,0,0,0,0,0,0,0,0,0,0,0,0,8,
scooby_state_403ce7|56|1 8,0,0,0,0,0,0,0,0,0,0,0,0,0,0,8,
scooby_state_403bd3|47|1 8,0,0,0,0,0,0,0,0,0,0,0,0,0,0,8,
scooby_state_418aae|40|1 8,0,0,0,0,0,0,0,0,0,0,0,0,0,0,8,
scooby_state_4146a6|36|0 7,0,0,0,0,0,0,0,0,0,0,0,0,0,1,8,
scooby_state_403ce7|45|1 8,0,0,0,0,0,0,0,0,0,0,0,0,0,0,8,
scooby_state_403be3|45|1 8,0,0,0,0,0,0,0,0,0,0,0,0,0,0,8,
scooby_state_403d10|57|1 8,0,0,0,0,0,0,0,0,0,0,0,0,0,0,8,
scooby_state_403d10|41|1 8,0,0,0,0,0,0,0,0,0,0,0,0,0,0,8,
scooby_state_403d10|38|1 8,0,0,0,0,0,0,0,0,0,0,0,0,0,0,8,
scooby_state_403ce7|44|1 8,0,0,0,0,0,0,0,0,0,0,0,0,0,0,8,
scooby_state_403ce7|46|1 8,0,0,0,0,0,0,0,0,0,0,0,0,0,0,8,
scooby_state_403d10|1|0 8,0,0,0,0,0,0,0,0,0,0,0,0,0,0,8,
scooby_state_403d10|4|1 8,0,0,0,0,0,0,0,0,0,0,0,0,0,0,8,
scooby_state_403ce7|53|1 8,0,0,0,0,0,0,0,0,0,0,0,0,0,0,8,
scooby_state_403bd3|1|1 8,0,0,0,0,0,0,0,0,0,0,0,0,0,0,8,
scooby_state_403bd3|38|1 8,0,0,0,0,0,0,0,0,0,0,0,0,0,0,8,
scooby_state_401742|54|0 8,0,0,0,0,0,0,0,0,0,0,0,0,0,0,8,
scooby_state_403d10|36|1 8,0,0,0,0,0,0,0,0,0,0,0,0,0,0,8,
scooby_state_403ce7|35|1 8,0,0,0,0,0,0,0,0,0,0,0,0,0,0,8,
scooby_state_403ce7|39|1 8,0,0,0,0,0,0,0,0,0,0,0,0,0,0,8,
scooby_state_403d10|29|1 8,0,0,0,0,0,0,0,0,0,0,0,0,0,0,8,
scooby_state_403ce7|34|1 8,0,0,0,0,0,0,0,0,0,0,0,0,0,0,8,
scooby_state_403ce7|62|1 8,0,0,0,0,0,0,0,0,0,0,0,0,0,0,8,
scooby_state_403ce7|5|1 7,0,0,0,0,1,0,0,0,0,0,0,0,0,0,8,
scooby_state_403ce7|40|1 8,0,0,0,0,0,0,0,0,0,0,0,0,0,0,8,
scooby_state_403ce7|50|1 8,0,0,0,0,0,0,0,0,0,0,0,0,0,0,8,
scooby_state_403d10|18|1 8,0,0,0,0,0,0,0,0,0,0,0,0,0,0,8,
scooby_state_403be3|36|1 7,0,0,0,0,0,0,0,0,0,1,0,0,0,0,8,
scooby_state_403d10|58|1 8,0,0,0,0,0,0,0,0,0,0,0,0,0,0,8,
scooby_state_403be3|44|1 8,0,0,0,0,0,0,0,0,0,0,0,0,0,0,8,
scooby_state_403ce7|20|1 8,0,0,0,0,0,0,0,0,0,0,0,0,0,0,8,
scooby_state_403ce7|1|0 8,0,0,0,0,0,0,0,0,0,0,0,0,0,0,8,
scooby_state_403d10|31|1 8,0,0,0,0,0,0,0,0,0,0,0,0,0,0,8,
scooby_state_403ce7|15|1 8,0,0,0,0,0,0,0,0,0,0,0,0,0,0,8,
scooby_state_403cdf|62|1 8,0,0,0,0,0,0,0,0,0,0,0,0,0,0,8,
scooby_state_403d10|24|1 8,0,0,0,0,0,0,0,0,0,0,0,0,0,0,8,
scooby_state_403d10|28|1 8,0,0,0,0,0,0,0,0,0,0,0,0,0,0,8,
scooby_state_403d10|59|1 8,0,0,0,0,0,0,0,0,0,0,0,0,0,0,8,
scooby_state_403d10|43|1 8,0,0,0,0,0,0,0,0,0,0,0,0,0,0,8,
scooby_state_418ab6|1|1 7,0,0,0,0,0,0,0,0,0,0,0,0,0,0,7,
[...]
scooby_state_418ab2|14|-33 1,0,0,0,0,0,0,0,0,0,0,0,0,0,0,1,
scooby_state_40bfd6|36|-27 1,0,0,0,0,0,0,0,0,0,0,0,0,0,0,1,
scooby_state_4013e8|33|3 0,0,1,0,0,0,0,0,0,0,0,0,0,0,0,1,
scooby_state_40bf48|3|-8 1,0,0,0,0,0,0,0,0,0,0,0,0,0,0,1,
scooby_state_418aae|49|11 1,0,0,0,0,0,0,0,0,0,0,0,0,0,0,1,
scooby_state_40fb27|22|1 1,0,0,0,0,0,0,0,0,0,0,0,0,0,0,1,
scooby_state_40bf48|0|-9 0,0,0,1,0,0,0,0,0,0,0,0,0,0,0,1,
scooby_state_40288c|52|-1 1,0,0,0,0,0,0,0,0,0,0,0,0,0,0,1,
scooby_state_418ab2|46|19 1,0,0,0,0,0,0,0,0,0,0,0,0,0,0,1,
scooby_state_418ac2|23|-8 0,0,0,0,0,0,0,1,0,0,0,0,0,0,0,1,
scooby_state_44ddc3|55|1 0,0,0,0,0,0,0,0,0,0,0,0,0,1,0,1,
scooby_state_418ac2|44|-17 0,0,0,0,0,0,0,0,0,0,0,0,0,1,0,1,
scooby_state_44ba63|38|-2 1,0,0,0,0,0,0,0,0,0,0,0,0,0,0,1,
scooby_state_418ab2|10|-10 1,0,0,0,0,0,0,0,0,0,0,0,0,0,0,1,
scooby_state_418ab2|37|-26 1,0,0,0,0,0,0,0,0,0,0,0,0,0,0,1,
scooby_state_4189a2|60|9 1,0,0,0,0,0,0,0,0,0,0,0,0,0,0,1,
scooby_state_418aae|27|12 1,0,0,0,0,0,0,0,0,0,0,0,0,0,0,1,
scooby_state_41e3a8|14|-3 0,0,0,0,0,0,0,0,1,0,0,0,0,0,0,1,
scooby_state_418ab2|0|-15 0,1,0,0,0,0,0,0,0,0,0,0,0,0,0,1,
scooby_state_418ac2|20|20 0,0,0,0,1,0,0,0,0,0,0,0,0,0,0,1,
scooby_state_418aba|17|-21 0,0,0,0,0,0,1,0,0,0,0,0,0,0,0,1,
scooby_state_40f55e|52|-1 1,0,0,0,0,0,0,0,0,0,0,0,0,0,0,1,
scooby_state_403bd3|4|0 1,0,0,0,0,0,0,0,0,0,0,0,0,0,0,1,
scooby_state_41e4db|20|0 0,1,0,0,0,0,0,0,0,0,0,0,0,0,0,1,
scooby_state_40f2c2|54|53 1,0,0,0,0,0,0,0,0,0,0,0,0,0,0,1,
scooby_state_418ac2|53|10 1,0,0,0,0,0,0,0,0,0,0,0,0,0,0,1,
scooby_state_403c3d|22|3 1,0,0,0,0,0,0,0,0,0,0,0,0,0,0,1,
scooby_state_402901|33|14 1,0,0,0,0,0,0,0,0,0,0,0,0,0,0,1,
scooby_state_406470|13|0 1,0,0,0,0,0,0,0,0,0,0,0,0,0,0,1,
scooby_state_418aba|7|-50 1,0,0,0,0,0,0,0,0,0,0,0,0,0,0,1,
scooby_state_418ac2|25|5 1,0,0,0,0,0,0,0,0,0,0,0,0,0,0,1,
scooby_state_418aba|49|18 0,0,0,0,0,0,0,0,0,0,0,1,0,0,0,1,
scooby_state_418ac2|34|28 1,0,0,0,0,0,0,0,0,0,0,0,0,0,0,1,
scooby_state_4146a6|60|59 1,0,0,0,0,0,0,0,0,0,0,0,0,0,0,1,
scooby_state_4013e8|9|1 1,0,0,0,0,0,0,0,0,0,0,0,0,0,0,1,
scooby_state_418aba|10|-40 0,0,0,0,0,0,0,0,0,1,0,0,0,0,0,1,
scooby_state_401810|8|0 1,0,0,0,0,0,0,0,0,0,0,0,0,0,0,1,
scooby_state_4146a6|15|5 1,0,0,0,0,0,0,0,0,0,0,0,0,0,0,1,
scooby_state_4025c2|23|1 0,0,0,0,0,0,0,0,1,0,0,0,0,0,0,1,
scooby_state_403bf7|42|20 1,0,0,0,0,0,0,0,0,0,0,0,0,0,0,1,
scooby_state_418ac2|18|-3 0,0,0,0,0,1,0,0,0,0,0,0,0,0,0,1,
scooby_state_4189a2|22|2 1,0,0,0,0,0,0,0,0,0,0,0,0,0,0,1,
scooby_state_403bfc|41|3 1,0,0,0,0,0,0,0,0,0,0,0,0,0,0,1,
scooby_state_4189a2|56|11 1,0,0,0,0,0,0,0,0,0,0,0,0,0,0,1,
scooby_state_418ab2|53|21 1,0,0,0,0,0,0,0,0,0,0,0,0,0,0,1,
scooby_state_4063dc|48|-9 1,0,0,0,0,0,0,0,0,0,0,0,0,0,0,1,
scooby_state_418aba|24|16 0,0,0,0,0,0,0,0,0,0,0,0,0,1,0,1,
scooby_state_4146a6|56|20 1,0,0,0,0,0,0,0,0,0,0,0,0,0,0,1,
scooby_state_418aba|17|1 1,0,0,0,0,0,0,0,0,0,0,0,0,0,0,1,
scooby_state_40bf48|52|-8 0,0,0,0,0,0,0,0,0,1,0,0,0,0,0,1,
scooby_state_40f37d|33|-1 1,0,0,0,0,0,0,0,0,0,0,0,0,0,0,1,
scooby_state_418ac2|60|34 1,0,0,0,0,0,0,0,0,0,0,0,0,0,0,1,
scooby_state_418ab2|3|-14 1,0,0,0,0,0,0,0,0,0,0,0,0,0,0,1,
scooby_state_418ab2|50|42 1,0,0,0,0,0,0,0,0,0,0,0,0,0,0,1,
scooby_state_418aba|25|-2 1,0,0,0,0,0,0,0,0,0,0,0,0,0,0,1,
scooby_state_418aba|14|-4 1,0,0,0,0,0,0,0,0,0,0,0,0,0,0,1,
scooby_state_418ac2|34|-6 0,0,0,0,0,0,0,0,0,0,0,1,0,0,0,1,
scooby_state_418ab2|37|36 0,0,0,0,0,0,0,0,1,0,0,0,0,0,0,1,
scooby_state_4189a2|48|1 1,0,0,0,0,0,0,0,0,0,0,0,0,0,0,1,
scooby_state_4146a6|53|8 1,0,0,0,0,0,0,0,0,0,0,0,0,0,0,1,
scooby_state_418aba|23|4 1,0,0,0,0,0,0,0,0,0,0,0,0,0,0,1,
scooby_state_418aba|31|-24 0,0,0,0,0,0,0,0,1,0,0,0,0,0,0,1,
scooby_state_403bfc|42|20 1,0,0,0,0,0,0,0,0,0,0,0,0,0,0,1,
scooby_state_418ab2|41|9 0,0,0,0,0,0,0,0,0,1,0,0,0,0,0,1,
scooby_state_418aba|56|32 1,0,0,0,0,0,0,0,0,0,0,0,0,0,0,1,
scooby_state_4063f4|9|1 1,0,0,0,0,0,0,0,0,0,0,0,0,0,0,1,
scooby_state_418aba|60|37 0,0,0,0,0,0,0,1,0,0,0,0,0,0,0,1,
scooby_state_40f2bf|53|1 1,0,0,0,0,0,0,0,0,0,0,0,0,0,0,1,
scooby_state_418aba|35|-21 0,0,0,0,0,0,0,0,1,0,0,0,0,0,0,1,
scooby_state_418aba|43|-9 0,0,0,0,0,1,0,0,0,0,0,0,0,0,0,1,
scooby_state_418aba|32|-24 0,0,0,0,1,0,0,0,0,0,0,0,0,0,0,1,
scooby_state_403bdb|26|18 1,0,0,0,0,0,0,0,0,0,0,0,0,0,0,1,
scooby_state_401830|23|1 1,0,0,0,0,0,0,0,0,0,0,0,0,0,0,1,
scooby_state_418ac2|49|48 0,0,0,0,0,0,0,0,0,0,0,0,1,0,0,1,
scooby_state_418aba|58|55 0,0,0,0,1,0,0,0,0,0,0,0,0,0,0,1,
scooby_state_418ac2|2|-52 0,0,0,0,1,0,0,0,0,0,0,0,0,0,0,1,
scooby_state_418aba|5|-22 1,0,0,0,0,0,0,0,0,0,0,0,0,0,0,1,
scooby_state_403bfc|6|3 1,0,0,0,0,0,0,0,0,0,0,0,0,0,0,1,
scooby_state_418aae|3|0 1,0,0,0,0,0,0,0,0,0,0,0,0,0,0,1,
scooby_state_403d50|15|1 1,0,0,0,0,0,0,0,0,0,0,0,0,0,0,1,
scooby_state_4189a2|15|8 1,0,0,0,0,0,0,0,0,0,0,0,0,0,0,1,
scooby_state_4146a6|33|4 1,0,0,0,0,0,0,0,0,0,0,0,0,0,0,1,
scooby_state_414d03|31|5 1,0,0,0,0,0,0,0,0,0,0,0,0,0,0,1,
scooby_state_418ac2|54|-9 1,0,0,0,0,0,0,0,0,0,0,0,0,0,0,1,
scooby_state_418ab2|1|-31 0,0,0,0,0,0,0,0,0,0,0,0,0,0,1,1,
scooby_state_418ab2|56|27 1,0,0,0,0,0,0,0,0,0,0,0,0,0,0,1,
scooby_state_403bfc|42|3 1,0,0,0,0,0,0,0,0,0,0,0,0,0,0,1,
scooby_state_418ab2|44|19 1,0,0,0,0,0,0,0,0,0,0,0,0,0,0,1,
scooby_state_418aba|32|24 0,0,0,0,0,0,0,0,1,0,0,0,0,0,0,1,
scooby_state_418ac2|55|6 0,0,0,0,0,0,0,0,0,0,0,0,1,0,0,1,
scooby_state_418ab2|10|-35 1,0,0,0,0,0,0,0,0,0,0,0,0,0,0,1,
scooby_state_418ac2|40|18 1,0,0,0,0,0,0,0,0,0,0,0,0,0,0,1,
scooby_state_418ac2|19|-3 0,0,0,1,0,0,0,0,0,0,0,0,0,0,0,1,
scooby_state_403d50|32|1 1,0,0,0,0,0,0,0,0,0,0,0,0,0,0,1,
scooby_state_418ab2|46|29 1,0,0,0,0,0,0,0,0,0,0,0,0,0,0,1,
scooby_state_41dab0|17|-16 1,0,0,0,0,0,0,0,0,0,0,0,0,0,0,1,
scooby_state_418aba|22|-7 0,0,0,0,0,0,0,0,0,0,0,0,0,0,1,1,
scooby_state_40f370|50|-8 1,0,0,0,0,0,0,0,0,0,0,0,0,0,0,1,
scooby_state_418ab2|51|50 1,0,0,0,0,0,0,0,0,0,0,0,0,0,0,1,
scooby_state_418aba|6|-28 0,0,0,0,0,0,0,0,0,0,0,0,0,1,0,1,
scooby_state_418ab2|46|40 1,0,0,0,0,0,0,0,0,0,0,0,0,0,0,1,
scooby_state_4146a6|23|-39 1,0,0,0,0,0,0,0,0,0,0,0,0,0,0,1,
scooby_state_403bfc|62|3 1,0,0,0,0,0,0,0,0,0,0,0,0,0,0,1,
scooby_state_418ac2|9|-33 1,0,0,0,0,0,0,0,0,0,0,0,0,0,0,1,
scooby_state_418ab2|56|10 1,0,0,0,0,0,0,0,0,0,0,0,0,0,0,1,
scooby_state_403c3d|59|13 1,0,0,0,0,0,0,0,0,0,0,0,0,0,0,1,
scooby_state_418ab2|16|-34 1,0,0,0,0,0,0,0,0,0,0,0,0,0,0,1,
scooby_state_418ab2|8|-36 1,0,0,0,0,0,0,0,0,0,0,0,0,0,0,1,
scooby_state_4027c0|31|0 0,0,0,0,0,0,0,0,0,0,1,0,0,0,0,1,
scooby_state_418aae|49|21 1,0,0,0,0,0,0,0,0,0,0,0,0,0,0,1,
scooby_state_418aba|8|-52 0,0,0,0,0,0,0,0,0,0,0,1,0,0,0,1,
scooby_state_418ac2|44|43 0,0,0,1,0,0,0,0,0,0,0,0,0,0,0,1,
scooby_state_4146a6|44|11 1,0,0,0,0,0,0,0,0,0,0,0,0,0,0,1,
scooby_state_40f4d3|57|0 1,0,0,0,0,0,0,0,0,0,0,0,0,0,0,1,
scooby_state_414d10|36|25 1,0,0,0,0,0,0,0,0,0,0,0,0,0,0,1,
scooby_state_418ac2|36|-5 0,0,0,1,0,0,0,0,0,0,0,0,0,0,0,1,
scooby_state_4146a6|23|9 1,0,0,0,0,0,0,0,0,0,0,0,0,0,0,1,
scooby_state_418aae|37|2 1,0,0,0,0,0,0,0,0,0,0,0,0,0,0,1,
scooby_state_41899e|52|0 1,0,0,0,0,0,0,0,0,0,0,0,0,0,0,1,
scooby_state_4146a6|24|-9 1,0,0,0,0,0,0,0,0,0,0,0,0,0,0,1,
scooby_state_418aba|19|11 0,0,0,0,0,0,0,0,0,0,1,0,0,0,0,1,
scooby_state_4146a6|56|8 1,0,0,0,0,0,0,0,0,0,0,0,0,0,0,1,
scooby_state_418ac2|8|-16 1,0,0,0,0,0,0,0,0,0,0,0,0,0,0,1,
scooby_state_403d50|56|1 1,0,0,0,0,0,0,0,0,0,0,0,0,0,0,1,
scooby_state_403bfc|60|39 1,0,0,0,0,0,0,0,0,0,0,0,0,0,0,1,
scooby_state_403bd3|27|5 1,0,0,0,0,0,0,0,0,0,0,0,0,0,0,1,
scooby_state_418ab2|7|6 1,0,0,0,0,0,0,0,0,0,0,0,0,0,0,1,
scooby_state_418aba|34|-29 0,0,0,0,0,0,0,0,0,0,0,0,1,0,0,1,
scooby_state_40fb2b|12|-24 1,0,0,0,0,0,0,0,0,0,0,0,0,0,0,1,
scooby_state_403bf7|62|20 1,0,0,0,0,0,0,0,0,0,0,0,0,0,0,1,
scooby_state_418ac2|10|-42 1,0,0,0,0,0,0,0,0,0,0,0,0,0,0,1,
scooby_state_414d10|41|1 1,0,0,0,0,0,0,0,0,0,0,0,0,0,0,1,
scooby_state_418aba|18|-14 0,0,0,0,0,0,1,0,0,0,0,0,0,0,0,1,
scooby_state_418ac2|1|-6 0,0,0,0,0,0,0,0,0,0,0,0,0,0,1,1,
scooby_state_418aae|41|3 1,0,0,0,0,0,0,0,0,0,0,0,0,0,0,1,
scooby_state_418ab2|14|14 1,0,0,0,0,0,0,0,0,0,0,0,0,0,0,1,
scooby_state_40f2bf|56|1 1,0,0,0,0,0,0,0,0,0,0,0,0,0,0,1,
scooby_state_4146a6|19|-42 1,0,0,0,0,0,0,0,0,0,0,0,0,0,0,1,
scooby_state_418ab2|63|61 1,0,0,0,0,0,0,0,0,0,0,0,0,0,0,1,
scooby_state_418ac2|15|-41 1,0,0,0,0,0,0,0,0,0,0,0,0,0,0,1,
scooby_state_418ac2|33|-5 1,0,0,0,0,0,0,0,0,0,0,0,0,0,0,1,
scooby_state_403bfc|40|39 1,0,0,0,0,0,0,0,0,0,0,0,0,0,0,1,
scooby_state_418ab2|14|-32 0,0,0,0,0,0,0,0,0,0,0,0,0,1,0,1,
scooby_state_403bf7|40|39 1,0,0,0,0,0,0,0,0,0,0,0,0,0,0,1,
scooby_state_4063f4|58|10 1,0,0,0,0,0,0,0,0,0,0,0,0,0,0,1,
scooby_state_40fae5|2|-1 0,0,0,0,0,1,0,0,0,0,0,0,0,0,0,1,
scooby_state_4063d8|53|1 1,0,0,0,0,0,0,0,0,0,0,0,0,0,0,1,
scooby_state_418ac2|48|6 0,0,0,0,1,0,0,0,0,0,0,0,0,0,0,1,
scooby_state_418aae|45|16 1,0,0,0,0,0,0,0,0,0,0,0,0,0,0,1,
scooby_state_418aba|56|36 0,0,0,0,0,0,0,0,0,0,0,1,0,0,0,1,
scooby_state_418ac2|40|29 0,0,0,0,0,0,0,0,0,0,0,0,0,0,1,1,
scooby_state_418ac2|4|-41 1,0,0,0,0,0,0,0,0,0,0,0,0,0,0,1,
scooby_state_418ac2|10|-7 0,0,0,0,0,0,0,0,1,0,0,0,0,0,0,1,
scooby_state_418ab2|33|-9 1,0,0,0,0,0,0,0,0,0,0,0,0,0,0,1,
scooby_state_40f375|5|-18 1,0,0,0,0,0,0,0,0,0,0,0,0,0,0,1,
scooby_state_418ab2|42|8 1,0,0,0,0,0,0,0,0,0,0,0,0,0,0,1,
scooby_state_4063f4|61|23 1,0,0,0,0,0,0,0,0,0,0,0,0,0,0,1,
scooby_state_418ab2|22|-30 1,0,0,0,0,0,0,0,0,0,0,0,0,0,0,1,
scooby_state_403bdb|18|3 1,0,0,0,0,0,0,0,0,0,0,0,0,0,0,1,
scooby_state_403bdf|2|1 1,0,0,0,0,0,0,0,0,0,0,0,0,0,0,1,
scooby_state_4063dc|39|7 1,0,0,0,0,0,0,0,0,0,0,0,0,0,0,1,
scooby_state_4063dc|38|5 1,0,0,0,0,0,0,0,0,0,0,0,0,0,0,1,
scooby_state_4146a6|24|-2 1,0,0,0,0,0,0,0,0,0,0,0,0,0,0,1,
scooby_state_418ac2|38|15 0,0,0,0,0,0,0,0,0,0,1,0,0,0,0,1,
scooby_state_4189a2|46|20 1,0,0,0,0,0,0,0,0,0,0,0,0,0,0,1,
scooby_state_418aba|56|13 1,0,0,0,0,0,0,0,0,0,0,0,0,0,0,1,
scooby_state_403bf7|37|3 1,0,0,0,0,0,0,0,0,0,0,0,0,0,0,1,
scooby_state_418aba|37|17 1,0,0,0,0,0,0,0,0,0,0,0,0,0,0,1,
scooby_state_418ac2|30|18 1,0,0,0,0,0,0,0,0,0,0,0,0,0,0,1,
scooby_state_418aba|39|-6 1,0,0,0,0,0,0,0,0,0,0,0,0,0,0,1,
scooby_state_418aba|45|-4 1,0,0,0,0,0,0,0,0,0,0,0,0,0,0,1,
scooby_state_4189a2|57|5 1,0,0,0,0,0,0,0,0,0,0,0,0,0,0,1,
scooby_state_418ac2|50|-8 0,0,0,0,0,0,0,0,0,0,0,0,0,1,0,1,
scooby_state_4146a6|8|-33 1,0,0,0,0,0,0,0,0,0,0,0,0,0,0,1,
scooby_state_40f370|24|-15 1,0,0,0,0,0,0,0,0,0,0,0,0,0,0,1,
scooby_state_418aba|31|-1 1,0,0,0,0,0,0,0,0,0,0,0,0,0,0,1,
scooby_state_418aba|52|35 0,0,0,0,1,0,0,0,0,0,0,0,0,0,0,1,
scooby_state_40bf48|3|-35 0,0,1,0,0,0,0,0,0,0,0,0,0,0,0,1,
scooby_state_418ac2|22|15 0,0,0,0,0,0,0,0,0,0,0,0,1,0,0,1,
scooby_state_418ac2|62|50 0,0,0,0,0,0,0,0,0,1,0,0,0,0,0,1,
scooby_state_4063f4|16|-3 1,0,0,0,0,0,0,0,0,0,0,0,0,0,0,1,
scooby_state_403bdf|13|1 1,0,0,0,0,0,0,0,0,0,0,0,0,0,0,1,
scooby_state_418ac2|2|-13 1,0,0,0,0,0,0,0,0,0,0,0,0,0,0,1,
scooby_state_418ab2|9|-9 1,0,0,0,0,0,0,0,0,0,0,0,0,0,0,1,
scooby_state_418ab2|18|3 0,0,0,0,0,1,0,0,0,0,0,0,0,0,0,1,
scooby_state_418ab2|40|12 1,0,0,0,0,0,0,0,0,0,0,0,0,0,0,1,
scooby_state_418ab2|23|22 0,0,1,0,0,0,0,0,0,0,0,0,0,0,0,1,
scooby_state_41c9de|37|-1 1,0,0,0,0,0,0,0,0,0,0,0,0,0,0,1,
scooby_state_418aba|54|1 1,0,0,0,0,0,0,0,0,0,0,0,0,0,0,1,
scooby_state_418ac2|12|3 0,0,0,0,0,0,0,0,0,0,0,1,0,0,0,1,
scooby_state_418ab2|32|-9 1,0,0,0,0,0,0,0,0,0,0,0,0,0,0,1,
scooby_state_418aba|17|-45 1,0,0,0,0,0,0,0,0,0,0,0,0,0,0,1,
scooby_state_418ac2|27|-6 0,0,0,0,0,1,0,0,0,0,0,0,0,0,0,1,
scooby_state_418aba|44|39 0,0,0,0,0,0,0,0,1,0,0,0,0,0,0,1,
scooby_state_41b51b|23|1 1,0,0,0,0,0,0,0,0,0,0,0,0,0,0,1,
scooby_state_40f529|44|-4 1,0,0,0,0,0,0,0,0,0,0,0,0,0,0,1,
scooby_state_418aba|41|15 1,0,0,0,0,0,0,0,0,0,0,0,0,0,0,1,
scooby_state_4146a6|30|14 1,0,0,0,0,0,0,0,0,0,0,0,0,0,0,1,
scooby_state_403bd3|17|2 1,0,0,0,0,0,0,0,0,0,0,0,0,0,0,1,
scooby_state_418aba|13|13 1,0,0,0,0,0,0,0,0,0,0,0,0,0,0,1,
scooby_state_4146a6|53|42 1,0,0,0,0,0,0,0,0,0,0,0,0,0,0,1,
scooby_state_418aba|13|-46 1,0,0,0,0,0,0,0,0,0,0,0,0,0,0,1,
scooby_state_418aba|49|-1 1,0,0,0,0,0,0,0,0,0,0,0,0,0,0,1,
scooby_state_4146a6|45|13 1,0,0,0,0,0,0,0,0,0,0,0,0,0,0,1,
scooby_state_418ac2|54|33 0,0,0,0,0,1,0,0,0,0,0,0,0,0,0,1,
scooby_state_418ab2|28|-27 0,0,0,0,0,0,0,0,0,0,1,0,0,0,0,1,
scooby_state_403be3|27|2 1,0,0,0,0,0,0,0,0,0,0,0,0,0,0,1,
scooby_state_403bf7|28|2 1,0,0,0,0,0,0,0,0,0,0,0,0,0,0,1,
scooby_state_418aba|12|-28 0,0,0,0,0,0,0,1,0,0,0,0,0,0,0,1,
scooby_state_40fb2b|21|-15 0,0,1,0,0,0,0,0,0,0,0,0,0,0,0,1,
scooby_state_4146a6|1|-30 1,0,0,0,0,0,0,0,0,0,0,0,0,0,0,1,
scooby_state_403bdb|40|27 1,0,0,0,0,0,0,0,0,0,0,0,0,0,0,1,
scooby_state_4189a2|19|3 1,0,0,0,0,0,0,0,0,0,0,0,0,0,0,1,
scooby_state_418aba|59|21 1,0,0,0,0,0,0,0,0,0,0,0,0,0,0,1,
scooby_state_4146a6|31|-24 1,0,0,0,0,0,0,0,0,0,0,0,0,0,0,1,
scooby_state_418ac2|49|42 0,0,0,0,0,0,0,0,0,0,1,0,0,0,0,1,
scooby_state_403c3d|57|1 1,0,0,0,0,0,0,0,0,0,0,0,0,0,0,1,
scooby_state_418aba|61|9 0,0,0,0,0,0,0,0,0,0,0,1,0,0,0,1,
scooby_state_40f4b1|62|0 1,0,0,0,0,0,0,0,0,0,0,0,0,0,0,1,
scooby_state_4013e8|13|5 1,0,0,0,0,0,0,0,0,0,0,0,0,0,0,1,

scooby_action_0_deg_dist 0,635,0,0,0,0,0,0,0,0,0,0,0,0,0,0,
scooby_action_12_deg_dist 0,457,2,0,0,0,0,0,0,0,0,0,0,0,0,0,
scooby_action_32_deg_dist 0,332,0,0,0,0,0,0,0,0,0,0,0,0,0,0,
scooby_action_3_deg_dist 0,770,14,0,9,0,0,0,0,0,0,0,0,0,0,0,
scooby_action_5_deg_dist 0,648,3,0,0,0,0,0,0,0,0,0,0,0,0,0,
scooby_action_1_deg_dist 0,12087,5900,0,10931,0,52306,0,0,0,0,0,0,0,0,0,
scooby_action_30_deg_dist 0,361,0,0,0,0,0,0,0,0,0,0,0,0,0,0,
scooby_action_4_deg_dist 0,634,9,0,1,0,0,0,0,0,0,0,0,0,0,0,
scooby_action_-3_deg_dist 0,490,1,0,0,0,0,0,0,0,0,0,0,0,0,0,
scooby_action_10_deg_dist 0,572,4,0,1,0,0,0,0,0,0,0,0,0,0,0,
scooby_action_-1_deg_dist 0,509,0,0,0,0,0,0,0,0,0,0,0,0,0,0,
scooby_action_23_deg_dist 0,346,2,0,0,0,0,0,0,0,0,0,0,0,0,0,
scooby_action_-6_deg_dist 0,482,0,0,0,0,0,0,0,0,0,0,0,0,0,0,
scooby_action_11_deg_dist 0,543,0,0,0,0,0,0,0,0,0,0,0,0,0,0,
scooby_action_22_deg_dist 0,421,1,0,0,0,0,0,0,0,0,0,0,0,0,0,

scooby_track_called 88471
scooby_track_same_address 2344
scooby_track_evict 85871

scooby_reward_demand_called 88471
scooby_reward_demand_pt_not_found 23977
scooby_reward_demand_pt_found 64494
scooby_reward_demand_pt_found_total 64494
scooby_reward_demand_has_reward 380
scooby_reward_train_called 19641
scooby_reward_assign_reward_called 86122
scooby_reward_no_pref 635
scooby_reward_incorrect 19006
scooby_reward_correct_untimely 55130
scooby_reward_correct_timely 8984
scooby_reward_out_of_bounds 2367
scooby_reward_tracker_hit 0

scooby_reward_none_low_bw 635
scooby_reward_none_high_bw 0
scooby_reward_incorrect_low_bw 19006
scooby_reward_incorrect_high_bw 0
scooby_reward_correct_untimely_low_bw 55130
scooby_reward_correct_untimely_high_bw 0
scooby_reward_correct_timely_low_bw 8984
scooby_reward_correct_timely_high_bw 0
scooby_reward_out_of_bounds_low_bw 2367
scooby_reward_out_of_bounds_high_bw 0
scooby_reward_tracker_hit_low_bw 0
scooby_reward_tracker_hit_high_bw 0

scooby_reward_1 0,14617,55023,8631,1297,0,
scooby_reward_3 0,483,27,46,39,0,
scooby_reward_4 0,485,12,42,49,0,
scooby_reward_5 0,478,13,52,54,0,
scooby_reward_10 0,386,14,36,92,0,
scooby_reward_11 0,377,6,28,87,0,
scooby_reward_12 0,323,2,20,79,0,
scooby_reward_22 0,229,1,17,145,0,
scooby_reward_23 0,196,1,11,126,0,
scooby_reward_30 0,159,3,14,164,0,
scooby_reward_32 0,127,3,9,175,0,
scooby_reward_-1 0,383,10,27,9,0,
scooby_reward_-3 0,388,9,20,15,0,
scooby_reward_-6 0,375,6,31,36,0,
scooby_reward_0 635,0,0,0,0,0,

scooby_train_called 85870
scooby_train_compute_reward 19641

scooby_register_fill_called 99192
scooby_register_fill_set 22165
scooby_register_fill_set_total 22165

scooby_register_prefetch_hit_called 258737
scooby_register_prefetch_hit_set 66058
scooby_register_prefetch_hit_set_total 66058

scooby_pref_issue_scooby 358090

learning_engine_featurewise.action.called 88471
learning_engine_featurewise.action.explore 163
learning_engine_featurewise.action.exploit 88308
learning_engine_featurewise.action.fallback 0
learning_engine_featurewise.action.dyn_fallback_saved_bw 0
learning_engine_featurewise.action.dyn_fallback_saved_bw_acc 0
learning_engine_featurewise.action.index_1_explored 10
learning_engine_featurewise.action.index_1_exploited 81214
learning_engine_featurewise.action.index_3_explored 13
learning_engine_featurewise.action.index_3_exploited 780
learning_engine_featurewise.action.index_4_explored 11
learning_engine_featurewise.action.index_4_exploited 633
learning_engine_featurewise.action.index_5_explored 10
learning_engine_featurewise.action.index_5_exploited 641
learning_engine_featurewise.action.index_10_explored 16
learning_engine_featurewise.action.index_10_exploited 561
learning_engine_featurewise.action.index_11_explored 10
learning_engine_featurewise.action.index_11_exploited 533
learning_engine_featurewise.action.index_12_explored 11
learning_engine_featurewise.action.index_12_exploited 448
learning_engine_featurewise.action.index_22_explored 14
learning_engine_featurewise.action.index_22_exploited 408
learning_engine_featurewise.action.index_23_explored 13
learning_engine_featurewise.action.index_23_exploited 335
learning_engine_featurewise.action.index_30_explored 12
learning_engine_featurewise.action.index_30_exploited 349
learning_engine_featurewise.action.index_32_explored 12
learning_engine_featurewise.action.index_32_exploited 320
learning_engine_featurewise.action.index_-1_explored 10
learning_engine_featurewise.action.index_-1_exploited 499
learning_engine_featurewise.action.index_-3_explored 7
learning_engine_featurewise.action.index_-3_exploited 484
learning_engine_featurewise.action.index_-6_explored 6
learning_engine_featurewise.action.index_-6_exploited 476
learning_engine_featurewise.action.index_0_explored 8
learning_engine_featurewise.action.index_0_exploited 627
learning_engine_featurewise.learn.called 85870
learning_engine_featurewise.learn.su_skip_PC 0
learning_engine_featurewise.learn.su_skip_PC_Delta 0

learning_engine_featurewise.q_value_histogram.bucket_0 0
learning_engine_featurewise.q_value_histogram.bucket_1 0
learning_engine_featurewise.q_value_histogram.bucket_2 0
learning_engine_featurewise.q_value_histogram.bucket_3 4611
learning_engine_featurewise.q_value_histogram.bucket_4 12381
learning_engine_featurewise.q_value_histogram.bucket_5 8739
learning_engine_featurewise.q_value_histogram.bucket_6 62577
learning_engine_featurewise.q_value_histogram.bucket_7 0

learning_engine_featurewise.consensus.total 88308
learning_engine_featurewise.consensus.feature_align_PC 76722
learning_engine_featurewise.consensus.feature_align_PC_ratio 0.87
learning_engine_featurewise.consensus.feature_align_PC_Delta 84717
learning_engine_featurewise.consensus.feature_align_PC_Delta_ratio 0.96
learning_engine_featurewise.consensus.feature_align_all 73131
learning_engine_featurewise.consensus.feature_align_all_ratio 0.83

learning_engine_featurewise.feature_PC_min_weight 1000000.00000000
learning_engine_featurewise.feature_PC_max_weight 0.00000000
learning_engine_featurewise.feature_PC_Delta_min_weight 1000000.00000000
learning_engine_featurewise.feature_PC_Delta_max_weight 0.00000000
unique_pcs 533
unique_pages 2196
unique_trigger_pcs 234
total_bitmaps_seen 0
unique_bitmaps_seen 0

scooby_bw_epochs 194848
scooby_bw_level_0 194848
scooby_bw_level_1 0
scooby_bw_level_2 0
scooby_bw_level_3 0

scooby_ipc_epochs 0
scooby_ipc_level_0 0
scooby_ipc_level_1 0
scooby_ipc_level_2 0
scooby_ipc_level_3 0

scooby_cache_acc_epochs 48521
scooby_cache_acc_level_0 4582
scooby_cache_acc_level_1 4636
scooby_cache_acc_level_2 4621
scooby_cache_acc_level_3 7053
scooby_cache_acc_level_4 4098
scooby_cache_acc_level_5 3737
scooby_cache_acc_level_6 6041
scooby_cache_acc_level_7 3265
scooby_cache_acc_level_8 3348
scooby_cache_acc_level_9 7140

Channel_0_RQ_row_buffer_hit 47699
Channel_0_RQ_row_buffer_miss 21720
Channel_0_WQ_row_buffer_hit 0
Channel_0_WQ_row_buffer_miss 83
Channel_0_WQ_full 0
Channel_0_dbus_congested 0

avg_congested_cycle 0

DRAM_bw_pochs 194848
DRAM_bw_level_0 194848
DRAM_bw_level_1 0
DRAM_bw_level_2 0
DRAM_bw_level_3 0
