*************************************************
   ChampSim Multicore Out-of-Order Simulator
   Last compiled: Dec  9 2023 10:40:12
*************************************************
parsing config file: /home/gio/Prefetcher-Research-Project/config/pythia.ini

trace_0 /home/gio/Prefetcher-Research-Project/traces/605.mcf_s-472B.champsimtrace.xz
adding L2C_PREFETCHER: Scooby
Initialize SHIP state
warmup_instructions 2000000
simulation_instructions 10000000
champsim_seed 223
measure_ipc 0
measure_ipc_epoch 1000
measure_dram_bw 1
measure_dram_bw_epoch 256
measure_cache_acc 1
measure_cache_acc_epoch 1024
l1d_perfect 0
l2c_perfect 0
llc_perfect 0
l1d_semi_perfect 0
l2c_semi_perfect 0
llc_semi_perfect 0
semi_perfect_cache_page_buffer_size 64

num_cpus 1
cpu_freq 550
dram_io_freq 2400
page_size 4096
block_size 64
max_read_per_cycle 8
max_fill_per_cycle 1
dram_channels 1
log2_dram_channels 0
dram_ranks 1
dram_banks 8
dram_rows 65536
dram_columns 128
dram_row_size 8
dram_size 4096
dram_pages 1048576

fetch_width 2
decode_width 2
exec_width 2
lq_width 1
sq_width 1
retire_width 5
scheduler_size 1
branch_mispredict_penalty 1
rob_size 256
lq_size 72
sq_size 56
num_instr_destinations_sparc 4
num_instr_destinations 2
num_instr_sources 4

itlb_set 1024
itlb_way 1024
itlb_rq_size 16
itlb_wq_size 16
itlb_pq_size 0
itlb_mshr_size 8
itlb_latency 0

dtlb_set 1024
dtlb_way 1024
dtlb_rq_size 32
dtlb_wq_size 32
dtlb_pq_size 0
dtlb_mshr_size 8
dtlb_latency 0

stlb_set 1024
stlb_way 1024
stlb_rq_size 32
stlb_wq_size 32
stlb_pq_size 0
stlb_mshr_size 16
stlb_latency 0

l1i_size 32
l1i_set 64
l1i_way 8
l1i_rq_size 64
l1i_wq_size 64
l1i_pq_size 32
l1i_mshr_size 8
l1i_latency 4

l1d_size 8
l1d_set 16
l1d_way 8
l1d_rq_size 64
l1d_wq_size 64
l1d_pq_size 8
l1d_mshr_size 16
l1d_latency 5

l2c_size 32
l2c_set 64
l2c_way 8
l2c_rq_size 32
l2c_wq_size 32
l2c_pq_size 16
l2c_mshr_size 32
l2c_latency 10

llc_size 2048
llc_set 2048
llc_way 16
llc_rq_size 32
llc_wq_size 32
llc_pq_size 32
llc_mshr_size 64
llc_latency 20

dram_channel_width 8
dram_wq_size 64
dram_rq_size 64
tRP 15
tRCD 15
tCAS 12.5
dram_dbus_turn_around_time 4
dram_write_high_wm 56
dram_write_low_wm 48
min_dram_writes_per_switch 16
dram_mtps 2400
dram_dbus_return_time 1

scooby_alpha 0.0065088
scooby_gamma 0.556301
scooby_epsilon 0.00182284
scooby_state_num_bits 10
scooby_max_states 1024
scooby_seed 200
scooby_policy EGreedy
scooby_learning_type SARSA
scooby_actions 1,3,4,5,10,11,12,22,23,30,32,-1,-3,-6,0,
scooby_max_actions 15
scooby_pt_size 256
scooby_st_size 64
scooby_max_pcs 5
scooby_max_offsets 5
scooby_max_deltas 5
scooby_reward_none -4
scooby_reward_incorrect -8
scooby_reward_correct_untimely 12
scooby_reward_correct_timely 20
scooby_brain_zero_init 0
scooby_enable_reward_all 0
scooby_enable_track_multiple 0
scooby_enable_reward_out_of_bounds 1
scooby_reward_out_of_bounds -12
scooby_state_type 1
scooby_state_hash_type 11
scooby_access_debug 0
scooby_print_access_debug 0
scooby_print_access_debug_pc deadbeef
scooby_print_access_debug_pc_count 0
scooby_print_trace 0
scooby_enable_state_action_stats 1
scooby_enable_reward_tracker_hit 0
scooby_reward_tracker_hit -2
scooby_enable_featurewise_engine 1
scooby_pref_degree 1
scooby_enable_dyn_degree 1
scooby_max_to_avg_q_thresholds 0.5,1,2,
scooby_dyn_degrees 1,2,4,4,
scooby_multi_deg_select_type 2
scooby_last_pref_offset_conf_thresholds 1,3,8,
scooby_dyn_degrees_type2 1,2,4,6,
scooby_action_tracker_size 2
scooby_high_bw_thresh 4
scooby_enable_hbw_reward 1
scooby_reward_hbw_correct_timely 20
scooby_reward_hbw_correct_untimely 12
scooby_reward_hbw_incorrect -14
scooby_reward_hbw_none -2
scooby_reward_hbw_out_of_bounds -12
scooby_reward_hbw_tracker_hit -2
scooby_last_pref_offset_conf_thresholds_hbw 1,3,8,
scooby_dyn_degrees_type2_hbw 1,2,4,6,

le_enable_trace 0
le_trace_interval 0
le_trace_file_name 
le_trace_state 0
le_enable_score_plot 0
le_plot_file_name 
le_plot_actions 
le_enable_action_trace 0
le_action_trace_interval 0
le_action_trace_name 
le_enable_action_plot 0

le_featurewise_active_features PC, PC_Delta
le_featurewise_num_tilings 3,3,
le_featurewise_num_tiles 128,128,
le_featurewise_hash_types 2,2,
le_featurewise_enable_tiling_offset 1,1,
le_featurewise_max_q_thresh 0.5
le_featurewise_enable_action_fallback 1
le_featurewise_feature_weights 1,1,
le_featurewise_enable_dynamic_weight 0
le_featurewise_weight_gradient 0.001
le_featurewise_disable_adjust_weight_all_features_align 1
le_featurewise_selective_update 0
le_featurewise_pooling_type 2
le_featurewise_enable_dyn_action_fallback 1
le_featurewise_bw_acc_check_level 1
le_featurewise_acc_thresh 2
le_featurewise_enable_trace 0
le_featurewise_trace_feature_type 0
le_featurewise_trace_feature 
le_featurewise_trace_interval 0
le_featurewise_trace_record_count 0
le_featurewise_trace_file_name 
le_featurewise_enable_score_plot 0
le_featurewise_plot_actions 
le_featurewise_plot_file_name 


Heartbeat CPU  0 instructions:    1000000 cycles:    1635489 heartbeat IPC: 0.61144 cumulative IPC: 0.61144 (Simulation time: 0 hr 0 min 7 sec) 
Heartbeat CPU  0 instructions:    2000000 cycles:    3344267 heartbeat IPC: 0.58521 cumulative IPC: 0.59804 (Simulation time: 0 hr 0 min 16 sec) 

Warmup complete CPU  0 instructions:    2000001 cycles:    3344268 (Simulation time: 0 hr 0 min 16 sec) 

Heartbeat CPU  0 instructions:    3000000 cycles:   13354844 heartbeat IPC: 0.09989 cumulative IPC: 0.09989 (Simulation time: 0 hr 0 min 24 sec) 
Heartbeat CPU  0 instructions:    4000000 cycles:   23626240 heartbeat IPC: 0.09736 cumulative IPC: 0.09861 (Simulation time: 0 hr 0 min 30 sec) 
Heartbeat CPU  0 instructions:    5000000 cycles:   35616119 heartbeat IPC: 0.08340 cumulative IPC: 0.09296 (Simulation time: 0 hr 0 min 38 sec) 
Heartbeat CPU  0 instructions:    6000000 cycles:   45498360 heartbeat IPC: 0.10119 cumulative IPC: 0.09489 (Simulation time: 0 hr 0 min 44 sec) 
Heartbeat CPU  0 instructions:    7000000 cycles:   56767766 heartbeat IPC: 0.08874 cumulative IPC: 0.09359 (Simulation time: 0 hr 0 min 51 sec) 
Heartbeat CPU  0 instructions:    8000000 cycles:   67676185 heartbeat IPC: 0.09167 cumulative IPC: 0.09327 (Simulation time: 0 hr 0 min 59 sec) 
Heartbeat CPU  0 instructions:    9000000 cycles:   78076211 heartbeat IPC: 0.09615 cumulative IPC: 0.09367 (Simulation time: 0 hr 1 min 6 sec) 
Heartbeat CPU  0 instructions:   10000000 cycles:   89788741 heartbeat IPC: 0.08538 cumulative IPC: 0.09254 (Simulation time: 0 hr 1 min 13 sec) 
Heartbeat CPU  0 instructions:   11000000 cycles:   99855729 heartbeat IPC: 0.09933 cumulative IPC: 0.09325 (Simulation time: 0 hr 1 min 19 sec) 
Heartbeat CPU  0 instructions:   12000000 cycles:  114399203 heartbeat IPC: 0.06876 cumulative IPC: 0.09005 (Simulation time: 0 hr 1 min 27 sec) 
Finished CPU 0 instructions: 10000000 cycles: 111054943 cumulative IPC: 0.09005 (Simulation time: 0 hr 1 min 27 sec) 

ChampSim completed all CPUs

[ROI Statistics]
Core_0_instructions 10000000
Core_0_cycles 111054943
Core_0_IPC 0.09005

Core_0_branch_prediction_accuracy 98.50522
Core_0_branch_MPKI 1.60630
Core_0_average_ROB_occupancy_at_mispredict 183.04520

Core_0_L1D_total_access 5928354
Core_0_L1D_total_hit 5459170
Core_0_L1D_total_miss 469184
Core_0_L1D_loads 3343252
Core_0_L1D_load_hit 2897666
Core_0_L1D_load_miss 445586
Core_0_L1D_RFOs 2585102
Core_0_L1D_RFO_hit 2561504
Core_0_L1D_RFO_miss 23598
Core_0_L1D_prefetches 0
Core_0_L1D_prefetch_hit 0
Core_0_L1D_prefetch_miss 0
Core_0_L1D_writebacks 0
Core_0_L1D_writeback_hit 0
Core_0_L1D_writeback_miss 0
Core_0_L1D_prefetch_requested 0
Core_0_L1D_prefetch_dropped 0
Core_0_L1D_prefetch_issued 0
Core_0_L1D_prefetch_filled 0
Core_0_L1D_prefetch_useful 0
Core_0_L1D_prefetch_useless 0
Core_0_L1D_prefetch_late 0
Core_0_L1D_average_miss_latency 32.99231

Core_0_L1D_rq_access 3343252
Core_0_L1D_rq_forward 0
Core_0_L1D_rq_merged 0
Core_0_L1D_rq_to_cache 3343252
Core_0_L1D_rq_full 0

Core_0_L1D_wq_access 2635402
Core_0_L1D_wq_forward 0
Core_0_L1D_wq_merged 0
Core_0_L1D_wq_to_cache 2635402
Core_0_L1D_wq_full 0

Core_0_L1D_pq_access 0
Core_0_L1D_pq_forward 0
Core_0_L1D_pq_merged 0
Core_0_L1D_pq_to_cache 0
Core_0_L1D_pq_full 0

Core_0_L1D_acc_epochs 111537
Core_0_L1D_acc_level_0 111537
Core_0_L1D_acc_level_1 0
Core_0_L1D_acc_level_2 0
Core_0_L1D_acc_level_3 0
Core_0_L1D_acc_level_4 0
Core_0_L1D_acc_level_5 0
Core_0_L1D_acc_level_6 0
Core_0_L1D_acc_level_7 0
Core_0_L1D_acc_level_8 0
Core_0_L1D_acc_level_9 0

Core_0_L1I_total_access 7475339
Core_0_L1I_total_hit 7475339
Core_0_L1I_total_miss 0
Core_0_L1I_loads 7475339
Core_0_L1I_load_hit 7475339
Core_0_L1I_load_miss 0
Core_0_L1I_RFOs 0
Core_0_L1I_RFO_hit 0
Core_0_L1I_RFO_miss 0
Core_0_L1I_prefetches 0
Core_0_L1I_prefetch_hit 0
Core_0_L1I_prefetch_miss 0
Core_0_L1I_writebacks 0
Core_0_L1I_writeback_hit 0
Core_0_L1I_writeback_miss 0
Core_0_L1I_prefetch_requested 0
Core_0_L1I_prefetch_dropped 0
Core_0_L1I_prefetch_issued 0
Core_0_L1I_prefetch_filled 0
Core_0_L1I_prefetch_useful 0
Core_0_L1I_prefetch_useless 0
Core_0_L1I_prefetch_late 0
Core_0_L1I_average_miss_latency -nan

Core_0_L1I_rq_access 9999773
Core_0_L1I_rq_forward 0
Core_0_L1I_rq_merged 2524434
Core_0_L1I_rq_to_cache 7475339
Core_0_L1I_rq_full 0

Core_0_L1I_wq_access 0
Core_0_L1I_wq_forward 0
Core_0_L1I_wq_merged 0
Core_0_L1I_wq_to_cache 0
Core_0_L1I_wq_full 0

Core_0_L1I_pq_access 0
Core_0_L1I_pq_forward 0
Core_0_L1I_pq_merged 0
Core_0_L1I_pq_to_cache 0
Core_0_L1I_pq_full 0

Core_0_L1I_acc_epochs 111537
Core_0_L1I_acc_level_0 111537
Core_0_L1I_acc_level_1 0
Core_0_L1I_acc_level_2 0
Core_0_L1I_acc_level_3 0
Core_0_L1I_acc_level_4 0
Core_0_L1I_acc_level_5 0
Core_0_L1I_acc_level_6 0
Core_0_L1I_acc_level_7 0
Core_0_L1I_acc_level_8 0
Core_0_L1I_acc_level_9 0

Core_0_L2C_total_access 1806895
Core_0_L2C_total_hit 1183666
Core_0_L2C_total_miss 623229
Core_0_L2C_loads 445586
Core_0_L2C_load_hit 308784
Core_0_L2C_load_miss 136802
Core_0_L2C_RFOs 23598
Core_0_L2C_RFO_hit 6404
Core_0_L2C_RFO_miss 17194
Core_0_L2C_prefetches 1233707
Core_0_L2C_prefetch_hit 767935
Core_0_L2C_prefetch_miss 465772
Core_0_L2C_writebacks 104004
Core_0_L2C_writeback_hit 100543
Core_0_L2C_writeback_miss 3461
Core_0_L2C_prefetch_requested 1485976
Core_0_L2C_prefetch_dropped 0
Core_0_L2C_prefetch_issued 1485976
Core_0_L2C_prefetch_filled 554399
Core_0_L2C_prefetch_useful 311805
Core_0_L2C_prefetch_useless 242401
Core_0_L2C_prefetch_late 3747
Core_0_L2C_average_miss_latency 54.71695

Core_0_L2C_rq_access 469184
Core_0_L2C_rq_forward 0
Core_0_L2C_rq_merged 0
Core_0_L2C_rq_to_cache 469184
Core_0_L2C_rq_full 0

Core_0_L2C_wq_access 104004
Core_0_L2C_wq_forward 0
Core_0_L2C_wq_merged 0
Core_0_L2C_wq_to_cache 104004
Core_0_L2C_wq_full 0

Core_0_L2C_pq_access 1485976
Core_0_L2C_pq_forward 0
Core_0_L2C_pq_merged 6669
Core_0_L2C_pq_to_cache 1479307
Core_0_L2C_pq_full 0

Core_0_L2C_acc_epochs 111537
Core_0_L2C_acc_level_0 43482
Core_0_L2C_acc_level_1 10271
Core_0_L2C_acc_level_2 7558
Core_0_L2C_acc_level_3 6298
Core_0_L2C_acc_level_4 8242
Core_0_L2C_acc_level_5 13397
Core_0_L2C_acc_level_6 8223
Core_0_L2C_acc_level_7 4903
Core_0_L2C_acc_level_8 2855
Core_0_L2C_acc_level_9 6308

Core_0_LLC_total_access 685656
Core_0_LLC_total_hit 170410
Core_0_LLC_total_miss 515246
Core_0_LLC_loads 133057
Core_0_LLC_load_hit 25546
Core_0_LLC_load_miss 107511
Core_0_LLC_RFOs 17191
Core_0_LLC_RFO_hit 680
Core_0_LLC_RFO_miss 16511
Core_0_LLC_prefetches 469518
Core_0_LLC_prefetch_hit 80810
Core_0_LLC_prefetch_miss 388708
Core_0_LLC_writebacks 65890
Core_0_LLC_writeback_hit 63374
Core_0_LLC_writeback_miss 2516
Core_0_LLC_prefetch_requested 0
Core_0_LLC_prefetch_dropped 0
Core_0_LLC_prefetch_issued 0
Core_0_LLC_prefetch_filled 469211
Core_0_LLC_prefetch_useful 5152
Core_0_LLC_prefetch_useless 441207
Core_0_LLC_prefetch_late 0
Core_0_LLC_average_miss_latency 30.20615

Core_0_LLC_rq_access 150251
Core_0_LLC_rq_forward 0
Core_0_LLC_rq_merged 0
Core_0_LLC_rq_to_cache 150248
Core_0_LLC_rq_full 0

Core_0_LLC_wq_access 65890
Core_0_LLC_wq_forward 3
Core_0_LLC_wq_merged 0
Core_0_LLC_wq_to_cache 65890
Core_0_LLC_wq_full 0

Core_0_LLC_pq_access 558147
Core_0_LLC_pq_forward 0
Core_0_LLC_pq_merged 0
Core_0_LLC_pq_to_cache 558147
Core_0_LLC_pq_full 0

Core_0_LLC_acc_epochs 111718
Core_0_LLC_acc_level_0 109498
Core_0_LLC_acc_level_1 912
Core_0_LLC_acc_level_2 502
Core_0_LLC_acc_level_3 196
Core_0_LLC_acc_level_4 57
Core_0_LLC_acc_level_5 295
Core_0_LLC_acc_level_6 31
Core_0_LLC_acc_level_7 66
Core_0_LLC_acc_level_8 14
Core_0_LLC_acc_level_9 147

Core_0_major_page_fault 0
Core_0_minor_page_fault 3839

scooby_st_lookup 533903
scooby_st_hit 521152
scooby_st_evict 12687
scooby_st_insert 12751
scooby_st_streaming 0

scooby_predict_called 533903
scooby_predict_out_of_bounds 15278
scooby_predict_action_1 233689
scooby_predict_issue_action_1 120952
scooby_predict_hit_action_1 112737
scooby_predict_out_of_bounds_action_1 2930
scooby_predict_action_3 222
scooby_predict_issue_action_3 148
scooby_predict_hit_action_3 74
scooby_predict_out_of_bounds_action_3 12
scooby_predict_action_4 8360
scooby_predict_issue_action_4 4537
scooby_predict_hit_action_4 3823
scooby_predict_out_of_bounds_action_4 424
scooby_predict_action_5 445
scooby_predict_issue_action_5 321
scooby_predict_hit_action_5 124
scooby_predict_out_of_bounds_action_5 25
scooby_predict_action_10 188
scooby_predict_issue_action_10 123
scooby_predict_hit_action_10 65
scooby_predict_out_of_bounds_action_10 53
scooby_predict_action_11 201
scooby_predict_issue_action_11 139
scooby_predict_hit_action_11 62
scooby_predict_out_of_bounds_action_11 40
scooby_predict_action_12 182
scooby_predict_issue_action_12 146
scooby_predict_hit_action_12 36
scooby_predict_out_of_bounds_action_12 34
scooby_predict_action_22 122
scooby_predict_issue_action_22 89
scooby_predict_hit_action_22 33
scooby_predict_out_of_bounds_action_22 117
scooby_predict_action_23 119
scooby_predict_issue_action_23 83
scooby_predict_hit_action_23 36
scooby_predict_out_of_bounds_action_23 71
scooby_predict_action_30 115
scooby_predict_issue_action_30 72
scooby_predict_hit_action_30 43
scooby_predict_out_of_bounds_action_30 106
scooby_predict_action_32 34
scooby_predict_issue_action_32 18
scooby_predict_hit_action_32 16
scooby_predict_out_of_bounds_action_32 72
scooby_predict_action_-1 64079
scooby_predict_issue_action_-1 60525
scooby_predict_hit_action_-1 3554
scooby_predict_out_of_bounds_action_-1 998
scooby_predict_action_-3 210196
scooby_predict_issue_action_-3 209137
scooby_predict_hit_action_-3 1059
scooby_predict_out_of_bounds_action_-3 10392
scooby_predict_action_-6 100
scooby_predict_issue_action_-6 84
scooby_predict_hit_action_-6 16
scooby_predict_out_of_bounds_action_-6 4
scooby_predict_action_0 573
scooby_predict_issue_action_0 0
scooby_predict_hit_action_0 0
scooby_predict_out_of_bounds_action_0 0
scooby_predict_multi_deg_called 317276
scooby_predict_predicted 1485976
scooby_predict_multi_deg 1089602
scooby_predict_multi_deg_2 305170
scooby_predict_multi_deg_3 253335
scooby_predict_multi_deg_4 241344
scooby_predict_multi_deg_5 150578
scooby_predict_multi_deg_6 139175
scooby_predict_multi_deg_7 0
scooby_predict_multi_deg_8 0
scooby_predict_multi_deg_9 0
scooby_predict_multi_deg_10 0
scooby_predict_multi_deg_11 0
scooby_predict_multi_deg_12 0
scooby_predict_multi_deg_13 0
scooby_predict_multi_deg_14 0
scooby_predict_multi_deg_15 0
scooby_predict_multi_deg_16 0

scooby_selected_deg_1 79098
scooby_selected_deg_2 39905
scooby_selected_deg_3 0
scooby_selected_deg_4 79341
scooby_selected_deg_5 0
scooby_selected_deg_6 198030
scooby_selected_deg_7 0
scooby_selected_deg_8 0
scooby_selected_deg_9 0
scooby_selected_deg_10 0
scooby_selected_deg_11 0
scooby_selected_deg_12 0
scooby_selected_deg_13 0
scooby_selected_deg_14 0
scooby_selected_deg_15 0
scooby_selected_deg_16 0

scooby_state_403083|24|1 1824,0,1,2,1,2,3,2,1,2,0,29,1,1,4,1873,
scooby_state_402dc3|59|-4 1845,0,0,1,2,0,0,0,0,0,0,0,0,0,0,1848,
scooby_state_402dc3|63|0 1845,1,1,0,0,0,0,0,0,0,0,0,1,0,0,1848,
scooby_state_402dc3|62|0 1824,1,0,0,0,0,0,0,0,0,0,0,0,0,2,1827,
scooby_state_402dc3|61|0 1820,0,0,0,0,0,1,1,0,1,0,0,0,0,0,1823,
scooby_state_403083|9|1 1764,0,1,2,2,2,3,2,0,2,0,27,1,2,4,1812,
scooby_state_402dfb|63|0 9,1,0,0,0,0,0,1,0,0,0,1,1751,1,0,1764,
scooby_state_403083|7|1 1707,1,0,2,2,3,2,2,0,2,0,28,1,1,4,1755,
scooby_state_403083|42|1 1623,0,1,3,2,3,2,2,2,2,1,25,1,1,5,1673,
scooby_state_402dc3|12|-4 1611,0,0,0,1,0,1,0,0,1,0,2,1,0,0,1617,
scooby_state_402dc3|49|-4 1616,0,0,0,0,0,0,0,0,0,0,0,0,0,1,1617,
scooby_state_402dc3|53|-4 1615,0,0,0,0,1,0,1,0,0,0,0,0,0,0,1617,
scooby_state_402dc3|32|-4 1612,0,1,1,0,0,0,0,1,1,0,0,1,0,0,1617,
scooby_state_402dc3|46|-4 1614,1,0,0,0,1,0,0,0,0,0,0,0,0,1,1617,
scooby_state_402dc3|3|-4 1616,0,0,0,0,0,0,0,0,1,0,0,0,0,0,1617,
scooby_state_402dc3|2|-4 1615,0,0,0,0,0,0,0,1,0,0,0,1,0,0,1617,
scooby_state_402dc3|5|-4 1612,0,1,0,0,0,1,0,1,1,0,1,0,0,0,1617,
scooby_state_402dc3|39|-4 1611,0,0,0,0,1,1,1,1,0,1,0,0,0,1,1617,
scooby_state_402dc3|23|-4 1614,1,0,0,0,1,0,0,0,0,0,0,0,1,0,1617,
scooby_state_402dc3|26|-4 1614,0,0,0,0,0,0,0,1,0,0,1,0,1,0,1617,
scooby_state_402dc3|27|-4 1615,0,0,0,0,0,0,1,0,0,0,0,0,0,1,1617,
scooby_state_402dc3|56|-4 1615,0,0,1,0,1,0,0,0,0,0,0,0,0,0,1617,
scooby_state_402dc3|36|-4 1614,1,0,0,0,0,0,0,0,1,0,0,0,0,1,1617,
scooby_state_402dc3|47|-4 1615,0,0,0,0,0,1,0,0,0,0,1,0,0,0,1617,
scooby_state_402dc3|50|-4 1613,1,0,0,0,0,0,1,0,0,0,0,1,0,1,1617,
scooby_state_402dc3|10|-4 1614,2,1,0,0,0,0,0,0,0,0,0,0,0,0,1617,
scooby_state_402dc3|43|-4 1613,0,1,0,0,0,0,0,0,1,1,0,0,0,1,1617,
scooby_state_402dc3|9|-4 1615,0,2,0,0,0,0,0,0,0,0,0,0,0,0,1617,
scooby_state_402dc3|40|-4 1616,0,0,0,0,0,0,1,0,0,0,0,0,0,0,1617,
scooby_state_402dc3|13|-4 1616,0,0,0,0,0,0,0,0,1,0,0,0,0,0,1617,
scooby_state_402dc3|57|-4 1614,1,0,0,1,0,0,0,0,0,0,0,0,1,0,1617,
scooby_state_402dc3|37|-4 1610,1,0,0,0,0,1,1,0,0,0,1,1,1,1,1617,
scooby_state_402dc3|19|-4 1613,0,1,0,0,0,0,1,0,1,0,1,0,0,0,1617,
scooby_state_402dc3|33|-4 1614,0,1,0,0,1,0,0,0,0,0,1,0,0,0,1617,
scooby_state_402dc3|16|-4 1615,0,0,0,0,0,0,1,0,0,0,0,1,0,0,1617,
scooby_state_402dc3|0|-4 1615,0,0,0,0,0,0,0,0,1,0,0,1,0,0,1617,
scooby_state_402dc3|29|-4 1616,1,0,0,0,0,0,0,0,0,0,0,0,0,0,1617,
scooby_state_402dc3|22|-4 1613,0,1,1,1,1,0,0,0,0,0,0,0,0,0,1617,
scooby_state_402dc3|20|-4 1616,1,0,0,0,0,0,0,0,0,0,0,0,0,0,1617,
scooby_state_402dc3|30|-4 1615,0,0,0,1,0,1,0,0,0,0,0,0,0,0,1617,
scooby_state_402dc3|6|-4 1614,1,0,1,0,0,0,0,0,0,0,0,0,0,1,1617,
scooby_state_402dc3|17|-4 1608,0,0,0,0,0,1,0,0,0,0,2,0,0,0,1611,
scooby_state_402dc3|54|-4 1610,0,0,0,0,0,1,0,0,0,0,0,0,0,0,1611,
scooby_state_402dc3|42|-4 1608,0,0,0,0,0,0,1,1,0,0,0,0,0,0,1610,
scooby_state_402dc3|15|-4 1607,1,0,0,0,0,0,2,0,0,0,0,0,0,0,1610,
scooby_state_402dc3|44|-4 1605,1,0,0,0,0,0,0,0,0,1,0,0,0,0,1607,
scooby_state_402dc3|7|-4 1602,0,2,0,0,0,0,0,0,0,0,0,1,0,0,1605,
scooby_state_402dc3|34|-4 1602,0,0,0,0,0,0,0,0,0,0,2,0,0,0,1604,
scooby_state_402dc3|52|-4 1597,0,0,0,0,1,0,1,1,0,1,0,1,1,0,1603,
scooby_state_402dc3|25|-4 1601,0,0,1,0,0,0,0,1,0,0,0,0,0,0,1603,
scooby_state_402dc3|24|-4 1595,1,0,0,0,1,0,0,0,0,0,0,1,0,0,1598,
scooby_state_402dc3|8|-4 1592,0,0,2,0,0,0,0,1,0,1,0,0,0,0,1596,
scooby_state_402dc3|35|-4 1589,0,2,0,0,2,0,1,0,0,0,1,0,0,1,1596,
scooby_state_402dc3|51|-4 1590,0,0,0,1,0,0,0,0,0,0,1,0,0,0,1592,
scooby_state_402dc3|14|-4 1589,0,1,0,1,0,0,0,0,0,0,0,0,0,0,1591,
scooby_state_402dc3|45|-4 1587,0,0,1,1,0,0,0,0,0,0,0,0,0,0,1589,
scooby_state_402dc3|18|-4 1588,0,0,0,0,0,0,0,0,0,0,1,0,0,0,1589,
scooby_state_402dc3|41|-4 1586,0,0,0,0,0,0,0,0,0,0,0,1,0,1,1588,
scooby_state_402dc3|4|-4 1581,1,0,0,0,1,0,0,0,0,1,0,0,0,0,1584,
scooby_state_402dc3|31|-4 1581,0,0,1,1,0,0,1,0,0,0,0,0,0,0,1584,
scooby_state_402dc3|55|-4 1582,0,0,0,0,0,0,0,0,0,0,0,0,0,1,1583,
scooby_state_402dc3|1|-4 1579,1,0,0,0,1,0,0,1,0,0,1,0,0,0,1583,
scooby_state_402dc3|28|-4 1578,0,0,0,0,0,1,0,1,1,0,1,0,0,1,1583,
scooby_state_402dc3|58|-4 1573,0,0,1,1,0,0,0,2,0,0,0,0,0,1,1578,
scooby_state_402dc3|11|-4 1575,0,0,0,0,0,0,0,0,1,0,1,0,0,0,1577,
scooby_state_402dc3|38|-4 1574,0,0,0,1,0,0,0,1,1,0,0,0,0,0,1577,
scooby_state_402dc3|21|-4 1573,0,0,0,0,1,0,0,1,0,1,0,0,1,0,1577,
scooby_state_402dc3|48|-4 1568,0,0,1,1,0,0,0,0,0,1,0,0,0,1,1572,
scooby_state_40307e|23|-1 1536,1,1,0,0,0,0,0,0,1,0,0,1,0,0,1540,
scooby_state_403083|55|1 1488,0,1,1,1,2,2,2,0,2,0,26,1,1,5,1532,
scooby_state_403083|48|1 1373,0,1,3,2,4,3,4,1,4,0,48,3,3,11,1460,
scooby_state_40307e|8|-1 1387,0,0,2,0,0,0,0,0,0,1,0,0,1,0,1391,
scooby_state_402dcb|53|1 0,1,2,0,1,0,0,0,1,2,0,1,1377,0,1,1386,
scooby_state_402dcb|26|1 0,0,2,0,0,0,0,0,0,2,0,2,1380,0,0,1386,
scooby_state_402dcb|30|1 0,1,0,1,0,1,1,2,2,2,0,0,1376,0,0,1386,
scooby_state_402dcb|40|1 1,0,0,0,1,0,0,3,2,3,0,0,1376,0,0,1386,
scooby_state_402dcb|60|1 0,0,0,0,0,1,0,1,2,3,1,0,1378,0,0,1386,
scooby_state_402dcb|50|1 0,0,0,0,0,0,0,3,2,2,0,0,1378,0,1,1386,
scooby_state_402dcb|58|1 0,0,1,2,3,0,0,1,0,0,1,0,1377,0,1,1386,
scooby_state_402dcb|20|1 1,0,0,0,0,0,2,2,2,0,0,0,1379,0,0,1386,
scooby_state_402dcb|24|1 0,2,0,2,2,2,1,1,0,0,0,0,1375,0,1,1386,
scooby_state_402dcb|54|1 0,0,0,0,1,2,1,2,0,0,0,0,1380,0,0,1386,
scooby_state_402dcb|7|1 1,2,0,0,2,2,2,0,0,0,1,0,1376,0,0,1386,
scooby_state_402dcb|3|1 0,0,0,0,0,0,1,2,2,1,0,0,1380,0,0,1386,
scooby_state_402dcb|21|1 0,0,2,2,2,0,0,0,0,0,0,0,1380,0,0,1386,
scooby_state_402dcb|4|1 0,0,2,2,2,1,0,0,0,0,2,0,1377,0,0,1386,
scooby_state_402dcb|43|1 0,0,3,1,1,0,0,0,2,1,0,0,1378,0,0,1386,
scooby_state_402dcb|31|1 0,1,1,2,2,1,0,0,0,1,0,0,1378,0,0,1386,
scooby_state_402dcb|37|1 0,0,0,0,0,2,1,3,1,0,0,1,1378,0,0,1386,
scooby_state_402dcb|51|1 0,0,0,1,2,3,0,0,0,0,1,0,1379,0,0,1386,
scooby_state_402dcb|6|1 1,0,2,0,0,0,1,0,2,3,0,1,1376,0,0,1386,
scooby_state_402dcb|57|1 0,0,1,0,0,0,1,3,3,0,0,0,1378,0,0,1386,
scooby_state_402dcb|47|1 1,0,1,1,0,1,1,2,2,0,0,0,1377,0,0,1386,
scooby_state_402dcb|17|1 0,1,0,0,1,2,2,1,0,0,0,0,1379,0,0,1386,
scooby_state_402dcb|11|1 0,1,2,2,1,0,0,0,0,0,0,0,1380,0,0,1386,
scooby_state_402dcb|13|1 0,0,0,0,0,1,1,2,2,2,0,0,1378,0,0,1386,
scooby_state_402dcb|44|1 0,0,0,0,1,4,1,1,0,1,0,1,1377,0,0,1386,
scooby_state_402dcb|27|1 0,0,0,0,0,2,2,2,0,0,0,0,1380,0,0,1386,
scooby_state_402dcb|16|1 0,0,2,0,0,0,0,0,1,2,1,1,1377,1,1,1386,
scooby_state_402dcb|34|1 0,0,0,2,2,2,2,0,0,1,0,0,1377,0,0,1386,
scooby_state_402dcb|10|1 0,0,0,0,1,2,2,2,1,0,0,0,1378,0,0,1386,
scooby_state_402dcb|23|1 0,1,1,0,1,0,0,1,2,2,0,0,1377,0,1,1386,
scooby_state_402dcb|61|1 0,0,0,0,3,2,1,0,0,0,0,1,1379,0,0,1386,
scooby_state_402dcb|48|1 0,1,1,2,2,0,0,0,1,0,0,0,1379,0,0,1386,
scooby_state_402dcb|33|1 0,0,2,0,0,0,0,0,2,2,0,0,1379,1,0,1386,
scooby_state_402dcb|41|1 0,0,0,2,3,2,0,0,0,0,1,0,1378,0,0,1386,
scooby_state_402dcb|14|1 0,0,0,3,2,2,0,0,0,0,0,1,1378,0,0,1386,
scooby_state_402dcb|38|1 0,1,2,2,1,0,0,1,1,0,0,1,1376,0,0,1385,
scooby_state_402dcb|1|1 0,2,2,1,2,0,0,1,0,0,0,0,1371,1,0,1380,
scooby_state_402dcb|28|1 1,2,2,2,1,0,0,0,0,0,0,0,1372,0,0,1380,
scooby_state_402dcb|9|1 0,0,2,0,0,0,0,0,0,2,1,2,1372,0,0,1379,
scooby_state_402dcb|36|1 0,0,3,0,0,0,0,0,1,1,0,1,1373,0,0,1379,
scooby_state_402dcb|63|1 0,1,1,0,1,0,0,0,0,2,1,2,1371,0,0,1379,
scooby_state_402dcb|55|1 1,2,1,2,0,0,0,0,0,0,0,0,1368,0,0,1374,
scooby_state_402dcb|18|1 1,2,2,1,0,0,0,0,0,0,0,0,1366,2,0,1374,
scooby_state_402dcb|19|1 0,0,2,0,2,1,0,0,0,0,0,3,1363,1,0,1372,
scooby_state_402dcb|46|1 0,0,2,0,0,0,0,0,0,0,1,1,1368,0,0,1372,
scooby_state_402dcb|45|1 1,2,2,1,1,0,0,0,0,2,0,0,1362,0,0,1371,
scooby_state_402dcb|8|1 1,2,2,1,0,0,0,1,0,0,0,1,1359,0,0,1367,
scooby_state_402dcb|35|1 1,2,2,0,0,0,0,0,0,0,1,0,1361,0,0,1367,
scooby_state_402dcb|56|1 0,0,1,0,0,0,1,0,0,0,1,2,1360,0,0,1365,
scooby_state_402dcb|29|1 0,0,2,0,0,0,0,1,0,0,0,1,1360,0,1,1365,
scooby_state_402dcb|2|1 0,0,1,0,0,0,0,0,0,0,0,2,1360,1,0,1364,
scooby_state_402dcb|62|1 2,2,1,0,1,0,0,0,0,0,0,0,1355,0,0,1361,
scooby_state_402dcb|25|1 1,2,1,0,0,1,0,0,0,0,0,0,1355,0,0,1360,
scooby_state_402dcb|39|1 0,2,1,1,0,0,0,0,1,0,0,1,1351,1,0,1358,
scooby_state_402dcb|12|1 0,0,0,0,0,0,0,0,0,0,0,2,1356,0,0,1358,
scooby_state_402dcb|52|1 2,2,0,0,2,0,0,2,1,0,0,1,1345,0,0,1355,
scooby_state_402dcb|15|1 1,3,0,0,0,0,0,0,1,0,0,0,1348,0,0,1353,
scooby_state_402dcb|49|1 1,0,0,0,0,0,1,0,0,0,0,1,1349,0,0,1352,
scooby_state_402dcb|22|1 1,0,0,0,0,0,0,1,0,2,0,1,1346,0,1,1352,
scooby_state_402dcb|42|1 1,2,0,0,0,0,1,0,0,0,1,1,1345,0,0,1351,
scooby_state_402dcb|5|1 2,1,0,0,0,1,0,0,0,0,0,0,1343,0,0,1347,
scooby_state_402dcb|32|1 1,1,1,0,0,1,0,0,0,1,0,0,1341,0,0,1346,
scooby_state_402dcb|59|1 2,0,0,0,0,0,0,1,0,0,0,1,1342,0,0,1346,
scooby_state_403083|36|1 1218,1,0,6,1,3,2,2,0,3,0,30,2,1,5,1274,
scooby_state_403083|45|1 1185,1,1,2,1,3,2,2,2,2,0,24,1,1,4,1231,
scooby_state_403083|33|1 1134,0,0,2,1,3,1,2,0,2,0,21,1,2,4,1173,
scooby_state_402dcb|0|-3 0,2,3,0,0,0,0,0,0,0,0,0,1150,0,0,1155,
scooby_state_402dc3|60|-3 1154,0,0,0,1,0,0,0,0,0,0,0,0,0,0,1155,
scooby_state_40307e|41|0 1037,0,0,0,2,0,0,1,0,0,1,1,0,0,0,1042,
scooby_state_403083|40|1 971,1,0,0,0,1,1,0,0,0,0,6,0,0,0,980,
scooby_state_403083|57|1 972,0,0,2,0,0,0,0,1,1,0,1,0,0,2,979,
scooby_state_403083|8|1 966,0,1,2,0,2,2,0,0,0,0,0,0,0,0,973,
scooby_state_40307e|41|-1 942,0,0,0,0,0,0,0,0,0,0,1,0,0,1,944,
scooby_state_402fbc|43|2 931,1,0,1,0,0,0,1,0,1,0,1,0,0,0,936,
scooby_state_403083|41|1 917,0,0,0,0,2,2,0,1,1,1,2,0,0,0,926,
scooby_state_402dc0|52|-1 1,1,1,0,1,0,0,1,0,1,0,918,0,0,0,924,
scooby_state_402dc0|53|-1 0,1,0,0,1,0,1,1,1,1,0,918,0,0,0,924,
scooby_state_402dc0|54|-1 0,2,0,1,1,0,0,1,0,1,0,918,0,0,0,924,
scooby_state_402dc0|55|-1 0,1,0,0,1,0,0,1,0,1,0,918,0,0,0,922,
scooby_state_402dc0|56|-1 0,1,0,0,1,0,0,2,0,1,0,915,0,0,0,920,
scooby_state_402dc0|9|-1 1,0,0,1,0,0,1,0,3,0,0,911,0,1,0,918,
scooby_state_402dc0|11|-1 1,0,0,1,1,0,1,0,1,0,0,913,0,0,0,918,
scooby_state_402dc0|0|-1 1,0,0,1,0,0,2,0,0,1,0,913,0,0,0,918,
scooby_state_402dc0|8|-1 1,1,0,1,0,0,2,0,2,1,0,910,0,0,0,918,
scooby_state_402dc0|60|-1 0,1,0,2,0,0,0,2,0,1,0,912,0,0,0,918,
scooby_state_402dc0|7|-1 1,0,0,1,0,0,1,0,1,0,0,914,0,0,0,918,
scooby_state_402dc0|2|-1 1,1,0,1,0,1,1,0,1,0,0,912,0,0,0,918,
scooby_state_402dc0|3|-1 1,0,1,1,0,0,1,0,1,0,0,912,0,0,1,918,
scooby_state_402dc0|61|-1 0,1,0,1,0,0,0,1,0,2,0,913,0,0,0,918,
scooby_state_402dc0|58|-1 0,1,0,1,2,0,0,1,0,1,0,912,0,0,0,918,
scooby_state_402dc0|62|-1 0,1,0,1,0,1,1,1,0,1,0,912,0,0,0,918,
scooby_state_402dc0|1|-1 1,0,0,1,0,0,1,0,0,1,0,913,1,0,0,918,
scooby_state_402dc0|4|-1 1,1,0,1,0,0,1,0,1,0,0,913,0,0,0,918,
scooby_state_402dc0|5|-1 1,0,0,1,0,0,1,0,1,0,0,913,0,0,1,918,
scooby_state_402dc0|6|-1 1,0,0,1,0,0,1,0,1,0,0,913,0,1,0,918,
scooby_state_402dc0|12|-1 1,0,0,1,0,0,1,0,2,0,0,913,0,0,0,918,
scooby_state_402dc0|10|-1 1,0,0,1,0,0,1,2,1,0,0,912,0,0,0,918,
scooby_state_402dc0|63|0 4,0,0,0,0,0,0,0,0,0,1,912,0,0,1,918,
scooby_state_402dc0|14|-1 1,0,0,1,0,0,1,0,1,0,0,914,0,0,0,918,
scooby_state_402dc0|13|-1 1,0,0,1,0,0,1,0,1,0,0,913,0,1,0,918,
scooby_state_402dc0|59|-1 0,1,0,1,0,1,1,1,0,1,0,911,0,0,1,918,
scooby_state_402dc0|57|-1 0,2,0,0,1,0,0,1,0,1,0,913,0,0,0,918,
scooby_state_402dc0|38|-1 0,0,1,1,1,1,0,0,1,0,2,909,0,1,0,917,
scooby_state_402dc0|40|-1 0,0,1,1,1,0,0,0,0,0,1,913,0,0,0,917,
scooby_state_402dc0|44|-1 0,1,0,0,1,0,0,2,0,0,1,912,0,0,0,917,
scooby_state_402dc0|32|-1 0,0,1,1,0,1,0,0,0,0,1,913,0,0,0,917,
scooby_state_402dc0|37|-1 1,0,1,1,1,0,0,0,0,0,1,912,0,0,0,917,
scooby_state_402dc0|35|-1 0,0,1,1,0,1,0,0,0,0,1,913,0,0,0,917,
scooby_state_402dc0|15|-1 0,0,0,1,0,0,1,0,1,1,0,913,0,0,0,917,
scooby_state_402dc0|28|-1 0,0,1,1,0,1,0,0,0,0,0,914,0,0,0,917,
scooby_state_402dc0|43|-1 0,1,1,1,1,0,0,0,1,1,1,908,1,1,0,917,
scooby_state_402dc0|51|-1 0,1,0,0,1,0,0,1,0,1,0,911,1,1,0,917,
scooby_state_402dc0|30|-1 0,0,1,1,0,1,0,0,0,0,1,913,0,0,0,917,
scooby_state_402dc0|47|-1 1,1,0,0,1,1,0,1,0,0,1,911,0,0,0,917,
scooby_state_402dc0|20|-1 0,0,0,1,0,1,1,0,2,0,0,912,0,0,0,917,
scooby_state_402dc0|21|-1 0,0,0,1,0,1,0,0,1,0,0,913,0,0,1,917,
scooby_state_402dc0|17|-1 0,0,0,1,0,0,1,0,1,1,0,912,0,0,1,917,
scooby_state_402dc0|50|-1 0,1,0,0,1,0,0,1,0,2,0,912,0,0,0,917,
scooby_state_402dc0|22|-1 0,0,0,3,0,1,0,0,0,0,0,913,0,0,0,917,
scooby_state_402dc0|29|-1 0,0,1,2,0,1,0,0,0,0,0,913,0,0,0,917,
scooby_state_402dc0|34|-1 0,0,1,1,0,1,0,0,0,0,2,912,0,0,0,917,
scooby_state_402dc0|18|-1 0,0,0,1,0,0,1,0,1,0,0,914,0,0,0,917,
scooby_state_402dc0|27|-1 0,0,1,1,0,1,0,1,0,0,0,912,0,1,0,917,
scooby_state_402dc0|41|-1 0,0,1,1,1,0,0,0,0,0,1,913,0,0,0,917,
scooby_state_402dc0|49|-1 0,1,0,0,1,0,0,1,0,1,1,912,0,0,0,917,
scooby_state_402dc0|25|-1 0,0,1,1,1,1,1,0,0,1,0,911,0,0,0,917,
scooby_state_402dc0|42|-1 0,0,1,1,1,0,0,0,0,1,1,910,1,0,1,917,
scooby_state_402dc0|48|-1 0,1,0,0,1,0,0,1,0,0,1,913,0,0,0,917,
scooby_state_402dc0|26|-1 0,0,1,1,0,1,0,0,0,0,0,914,0,0,0,917,
scooby_state_402dc0|31|-1 0,1,1,1,0,1,0,0,0,0,1,911,0,1,0,917,
scooby_state_402dc0|33|-1 0,1,1,1,0,1,1,0,0,0,1,911,0,0,0,917,
scooby_state_402dc0|19|-1 0,0,1,2,0,0,1,0,1,1,0,911,0,0,0,917,
scooby_state_402dc0|36|-1 0,0,2,1,1,1,0,0,0,0,1,911,0,0,0,917,
scooby_state_402dc0|45|-1 0,1,0,0,1,0,0,1,0,0,1,912,1,0,0,917,
scooby_state_402dc0|24|-1 0,0,2,1,0,1,1,1,0,0,0,911,0,0,0,917,
scooby_state_402dc0|46|-1 0,1,0,0,1,0,0,1,0,0,1,913,0,0,0,917,
scooby_state_402dc0|16|-1 0,0,0,1,0,0,1,0,1,0,0,914,0,0,0,917,
scooby_state_402dc0|39|-1 0,0,2,1,1,0,0,0,0,0,1,912,0,0,0,917,
scooby_state_402dc0|23|-1 0,0,1,2,0,1,0,1,0,1,0,911,0,0,0,917,
scooby_state_40307e|32|1 913,0,0,0,0,0,0,1,0,0,0,0,0,0,0,914,
scooby_state_403083|49|1 905,0,0,1,0,0,0,0,1,0,0,2,0,0,0,909,
scooby_state_402dfb|20|-2 0,1,0,1,0,0,1,0,0,0,0,1,892,0,0,896,
scooby_state_402dfb|22|-1 1,0,0,2,1,0,0,0,1,0,0,1,890,0,0,896,
scooby_state_402dfb|38|-2 0,1,0,1,0,0,1,0,0,0,1,0,892,0,0,896,
scooby_state_402dfb|17|-2 0,1,0,0,0,0,1,1,0,1,0,1,891,0,0,896,
scooby_state_402dfb|43|-2 0,1,0,0,0,1,0,0,0,2,0,0,890,0,1,895,
scooby_state_402dfb|58|-2 0,0,0,0,1,0,2,1,1,2,1,0,887,0,0,895,
scooby_state_402dfb|56|-2 1,0,0,0,0,1,0,0,1,0,0,0,892,0,0,895,
scooby_state_402dfb|14|-1 0,1,0,1,0,1,1,0,1,1,1,1,886,0,0,894,
scooby_state_402dfb|42|-2 0,0,2,0,0,0,0,1,1,0,1,0,889,0,0,894,
scooby_state_402dfb|31|-2 0,0,0,0,0,1,0,0,1,0,1,0,891,0,0,894,
scooby_state_402dfb|60|-2 0,1,0,0,2,0,1,0,0,0,1,0,885,0,0,890,
scooby_state_402dfb|19|-1 0,1,0,1,0,0,1,0,0,0,0,1,886,0,0,890,
scooby_state_402dfb|53|-1 0,0,1,0,0,1,0,0,1,0,0,0,887,0,0,890,
scooby_state_402dfb|50|-1 1,0,0,1,1,1,0,1,1,1,0,0,883,0,0,890,
scooby_state_402dfb|40|-1 0,0,0,0,0,0,1,0,1,0,1,1,886,0,0,890,
scooby_state_402dfb|61|-1 0,0,1,1,0,0,0,1,0,0,0,0,886,1,0,890,
scooby_state_402dfb|51|-2 1,0,1,0,0,2,0,0,0,0,0,0,886,0,0,890,
scooby_state_402dfb|16|-1 0,1,0,0,1,1,1,0,0,1,0,1,884,0,0,890,
scooby_state_402dfb|3|-1 1,1,0,0,1,1,1,1,0,1,0,0,883,0,0,890,
scooby_state_402dfb|28|-1 0,0,1,1,0,1,0,1,0,2,0,1,883,0,0,890,
scooby_state_402dfb|9|-2 0,1,0,0,1,0,0,0,0,1,0,1,885,0,1,890,
scooby_state_402dfb|41|-1 0,0,1,0,0,1,0,1,0,0,0,2,885,0,0,890,
scooby_state_402dfb|55|-1 1,0,0,0,1,1,1,0,0,1,0,0,884,1,0,890,
scooby_state_402dfb|30|-2 0,2,2,0,0,0,1,0,0,2,0,0,883,0,0,890,
scooby_state_402dfb|53|-2 1,0,0,0,1,0,0,0,0,1,0,1,885,0,0,889,
scooby_state_402dfb|51|-1 0,0,0,0,0,1,0,0,1,0,0,1,886,0,0,889,
scooby_state_402dfb|33|-1 0,0,3,0,0,1,0,0,0,1,0,1,883,0,0,889,
scooby_state_402dfb|46|-1 0,0,1,0,0,2,1,0,0,0,1,1,883,0,0,889,
scooby_state_402dfb|26|-1 1,0,0,0,1,0,0,2,0,1,0,0,884,0,0,889,
scooby_state_402dfb|27|-2 0,1,0,1,1,0,0,0,0,1,0,0,884,0,1,889,
scooby_state_402dfb|40|-2 0,1,0,0,1,0,0,0,0,1,0,0,885,0,1,889,
scooby_state_402dfb|59|-1 0,1,0,0,1,0,0,0,0,0,0,1,886,0,0,889,
scooby_state_402dfb|29|-2 0,0,1,0,0,0,0,1,0,0,1,0,886,0,0,889,
scooby_state_402dfb|44|-2 0,0,0,0,0,1,1,0,1,1,1,0,884,0,0,889,
scooby_state_402dfb|52|-2 0,1,0,0,1,1,1,0,0,0,1,0,884,0,0,889,
scooby_state_402dfb|13|-2 1,1,1,0,1,1,0,0,0,0,1,0,880,0,0,886,
scooby_state_402dfb|2|-1 0,0,1,0,0,1,1,1,0,0,0,2,878,0,1,885,
scooby_state_402dfb|26|-2 0,1,1,0,0,1,0,0,0,0,1,1,880,0,0,885,
scooby_state_402dfb|45|-2 0,1,1,1,1,0,0,1,0,1,1,0,878,0,0,885,
scooby_state_402dfb|22|-2 0,1,0,0,1,2,1,0,0,1,0,0,879,0,0,885,
scooby_state_402dfb|37|-1 0,1,1,0,0,0,1,0,0,1,0,1,880,0,0,885,
scooby_state_402dfb|58|-1 1,0,1,0,0,1,0,0,0,0,1,1,879,0,1,885,
scooby_state_402dfb|8|-2 0,0,1,0,0,1,0,1,0,1,1,0,880,0,0,885,
scooby_state_402dfb|61|-2 1,0,0,1,0,1,0,0,1,0,0,0,880,1,0,885,
scooby_state_402dfb|35|-2 0,1,0,0,1,0,1,0,1,1,0,0,880,0,0,885,
scooby_state_402dfb|5|-2 1,0,0,0,0,1,0,1,1,0,1,1,879,0,0,885,
scooby_state_402dfb|47|-2 0,1,0,0,0,1,0,1,0,0,1,0,881,0,0,885,
scooby_state_402dfb|32|-1 0,1,0,1,1,1,1,0,0,1,0,1,878,0,0,885,
scooby_state_402dfb|4|-1 1,0,0,1,0,1,0,0,1,0,0,0,881,0,0,885,
scooby_state_402dfb|10|-1 0,0,1,0,1,0,1,2,0,0,0,1,879,0,0,885,
scooby_state_402dfb|10|-2 1,0,0,1,0,1,0,0,2,0,0,0,880,0,0,885,
scooby_state_402dfb|0|-2 1,0,1,0,0,1,0,0,0,0,2,0,880,0,0,885,
scooby_state_402dfb|21|-2 0,0,1,0,0,2,0,1,0,1,1,0,879,0,0,885,
scooby_state_402dfb|18|-1 0,0,1,0,1,0,0,1,1,0,0,0,880,0,0,884,
scooby_state_402dfb|57|-1 0,1,0,0,1,0,0,1,0,0,0,0,880,1,0,884,
scooby_state_402dfb|55|-2 0,1,0,0,0,0,0,1,0,0,1,0,881,0,0,884,
scooby_state_402dfb|21|-1 0,1,0,0,1,0,0,0,0,1,1,0,880,0,0,884,
scooby_state_402dfb|60|-1 1,0,0,1,0,0,0,0,1,1,0,0,880,0,0,884,
scooby_state_402dfb|37|-2 0,0,2,0,1,0,0,1,0,0,0,0,880,0,0,884,
scooby_state_402dfb|38|-1 0,0,0,0,0,1,0,0,2,0,0,1,880,0,0,884,
scooby_state_402dfb|23|-1 0,0,1,0,0,0,0,1,0,0,0,1,881,0,0,884,
scooby_state_402dfb|11|-1 0,1,0,0,0,0,2,0,0,1,0,0,880,0,0,884,
scooby_state_402dfb|3|-2 0,0,2,0,1,0,0,1,1,0,1,0,878,0,0,884,
scooby_state_402dfb|4|-2 0,1,0,0,0,0,2,1,0,1,0,0,878,0,1,884,
scooby_state_402dfb|39|-1 0,0,0,0,1,1,0,1,0,1,0,0,880,0,0,884,
scooby_state_402dfb|28|-2 1,0,0,1,0,0,0,0,1,0,0,1,880,0,0,884,
scooby_state_402dfb|30|-1 0,0,0,1,0,1,0,0,1,0,0,0,881,0,0,884,
scooby_state_402dfb|0|-1 0,0,0,0,1,0,0,1,0,1,0,0,881,0,0,884,
scooby_state_402dfb|13|-1 0,0,0,0,1,0,0,1,0,1,0,0,881,0,0,884,
scooby_state_402dfb|32|-2 0,0,0,0,1,0,0,1,1,1,0,0,880,0,0,884,
scooby_state_402dfb|56|-1 0,0,2,0,0,2,0,0,2,0,0,1,877,0,0,884,
scooby_state_402dfb|7|-2 0,0,0,1,0,0,1,0,1,0,0,1,880,0,0,884,
scooby_state_402dfb|23|-2 1,0,0,1,0,1,0,0,1,0,0,0,876,0,0,880,
scooby_state_402dfb|59|-2 0,0,1,0,0,1,0,1,0,0,1,0,875,0,1,880,
scooby_state_402dfb|33|-2 0,0,0,1,0,0,1,1,1,0,0,1,875,0,0,880,
scooby_state_402dfb|18|-2 1,0,0,0,0,1,0,1,1,1,1,0,874,0,0,880,
scooby_state_402dfb|54|-2 0,0,1,0,0,0,0,0,2,0,0,0,877,0,0,880,
scooby_state_402dfb|42|-1 1,1,1,0,1,0,1,0,0,1,0,0,874,0,0,880,
scooby_state_402dfb|15|-1 0,0,2,0,0,2,0,1,2,0,0,1,872,0,0,880,
scooby_state_402dfb|45|-1 2,0,0,2,0,0,1,0,0,0,0,1,874,0,0,880,
scooby_state_402dfb|17|-1 1,0,0,1,0,1,0,0,1,0,0,0,876,0,0,880,
scooby_state_402dfb|24|-1 0,1,0,1,0,0,1,0,0,1,0,1,875,0,0,880,
scooby_state_402dfb|52|-1 0,0,0,0,1,0,0,1,0,1,0,1,876,0,0,880,
scooby_state_402dfb|27|-1 0,0,1,1,0,0,1,0,1,0,0,1,875,0,0,880,
scooby_state_402dfb|34|-2 0,0,1,0,0,1,0,1,0,1,2,0,874,0,0,880,
scooby_state_402dfb|8|-1 0,1,0,0,1,0,0,0,0,1,0,0,876,0,0,879,
scooby_state_402dfb|36|-1 0,0,1,0,1,0,1,2,0,0,0,1,873,0,0,879,
scooby_state_402dfb|36|-2 0,0,0,1,0,1,0,0,1,0,0,1,875,0,0,879,
scooby_state_402dfb|14|-2 0,1,0,0,1,0,0,0,0,1,0,0,876,0,0,879,
scooby_state_402dfb|12|-2 0,1,1,1,0,0,1,1,0,1,1,1,871,0,0,879,
scooby_state_402dfb|19|-2 0,0,0,0,1,0,0,1,0,1,0,0,876,0,0,879,
scooby_state_402dfb|49|-1 0,1,0,0,0,0,0,1,0,0,0,1,876,0,0,879,
scooby_state_402dfb|2|-2 1,0,0,1,0,0,0,0,1,0,0,0,875,0,1,879,
scooby_state_402dfb|34|-1 0,1,0,0,2,0,0,0,1,1,0,0,874,0,0,879,
scooby_state_402dfb|50|-2 0,1,0,0,1,0,0,1,0,0,0,0,875,1,0,879,
scooby_state_402dfb|25|-1 0,0,0,0,0,1,0,1,1,0,0,1,875,0,0,879,
scooby_state_402dfb|48|-1 0,0,0,1,0,0,0,0,1,0,0,1,876,0,0,879,
scooby_state_402dfb|57|-2 1,0,0,0,1,0,0,1,0,0,1,0,875,0,0,879,
scooby_state_402dfb|35|-1 0,0,0,1,0,0,0,0,1,0,0,1,875,0,1,879,
scooby_state_402dfb|5|-1 0,0,1,0,2,0,1,1,1,0,0,1,872,0,0,879,
scooby_state_402dfb|54|-1 0,1,0,0,0,1,0,1,0,0,0,1,871,0,0,875,
scooby_state_402dfb|7|-1 1,1,1,0,0,1,0,0,0,0,0,1,870,0,0,875,
scooby_state_402dfb|20|-1 1,0,1,0,0,1,0,0,0,1,0,1,870,0,0,875,
scooby_state_402dfb|12|-1 1,0,0,1,0,1,0,0,1,0,0,1,870,0,0,875,
scooby_state_402dfb|46|-2 0,0,1,2,0,1,1,0,1,0,1,1,867,0,0,875,
scooby_state_402dfb|29|-1 0,1,0,0,1,0,1,0,0,1,0,0,870,0,1,875,
scooby_state_402dfb|48|-2 1,0,0,0,2,2,0,0,0,1,0,0,869,0,0,875,
scooby_state_402dfb|41|-2 0,0,1,1,1,0,0,0,1,0,0,0,870,0,0,874,
scooby_state_402dfb|43|-1 0,1,1,1,2,1,0,0,1,0,0,1,866,0,0,874,
scooby_state_402dfb|1|-1 0,0,0,1,0,0,1,0,1,0,0,0,871,0,0,874,
scooby_state_402dfb|16|-2 0,0,1,0,2,0,0,1,0,0,1,0,869,0,0,874,
scooby_state_402dfb|1|-2 0,1,0,0,1,0,0,0,0,1,0,0,871,0,0,874,
scooby_state_402dfb|49|-2 0,0,0,1,0,1,1,0,1,0,0,0,870,0,0,874,
scooby_state_402dfb|39|-2 0,0,1,0,0,1,0,0,0,0,1,0,871,0,0,874,
scooby_state_402dfb|62|0 4,1,0,0,0,0,0,0,0,0,0,0,869,0,0,874,
scooby_state_402dfb|9|-1 1,0,0,1,0,0,1,0,1,0,0,0,870,0,0,874,
scooby_state_402dfb|15|-2 1,0,0,1,0,0,0,1,1,0,0,1,869,0,0,874,
scooby_state_402dfb|24|-2 0,0,1,0,1,0,0,1,0,0,0,0,871,0,0,874,
scooby_state_402dfb|6|-1 0,1,0,1,0,0,2,0,0,0,0,2,868,0,0,874,
scooby_state_402dfb|44|-1 0,0,1,0,1,1,0,1,0,0,0,0,870,0,0,874,
scooby_state_402dfb|11|-2 1,0,1,1,1,0,0,3,0,0,0,0,867,0,0,874,
scooby_state_402dfb|25|-2 0,1,0,1,0,0,2,0,0,0,1,1,864,0,0,870,
scooby_state_402dfb|62|-1 0,1,0,0,0,0,1,0,0,0,0,2,863,1,1,869,
scooby_state_402dfb|47|-1 1,1,0,0,1,0,0,0,0,1,0,0,864,0,1,869,
scooby_state_402dfb|31|-1 0,0,1,1,1,0,0,1,0,0,0,0,865,0,0,869,
scooby_state_402dfb|6|-2 0,0,0,0,1,0,1,2,0,1,0,0,864,0,0,869,
scooby_state_402f85|41|-1 837,1,1,0,0,0,0,0,0,0,0,0,0,0,0,839,
scooby_state_403083|10|1 829,0,0,0,0,0,1,2,3,0,1,2,0,0,0,838,
scooby_state_403012|5|-2 552,0,157,0,0,0,0,0,1,0,0,0,127,0,0,837,
scooby_state_402fc5|44|1 823,0,0,0,1,1,0,0,0,0,1,0,0,0,0,826,
scooby_state_403012|31|-2 566,1,145,1,0,0,1,0,0,0,0,0,107,1,0,822,
scooby_state_403039|46|-2 1,0,0,2,0,0,0,0,0,0,0,817,0,0,0,820,
scooby_state_403083|39|1 807,1,0,2,0,1,1,0,0,0,0,2,0,0,0,814,
scooby_state_40307e|47|3 805,0,0,0,0,1,0,0,0,0,0,0,0,0,0,806,
scooby_state_403083|7|0 787,0,0,0,0,0,0,0,0,0,1,0,6,0,0,794,
scooby_state_40307e|54|8 791,0,0,0,0,2,0,0,0,0,0,0,0,0,0,793,
scooby_state_403083|43|1 735,1,2,2,1,2,3,4,0,2,0,26,1,1,5,785,
scooby_state_40307e|23|0 773,0,0,0,0,0,1,0,0,0,0,0,0,0,0,774,
scooby_state_403083|58|1 756,0,0,0,0,0,0,0,0,1,0,4,0,0,3,764,
scooby_state_40307e|35|30 761,0,0,0,0,0,0,0,0,0,0,0,0,0,0,761,
scooby_state_40307e|41|1 725,0,0,0,0,1,1,0,0,0,0,1,0,1,0,729,
scooby_state_40307e|6|-30 718,0,1,0,0,0,1,0,0,0,0,0,0,0,0,720,
scooby_state_402f72|51|0 63,26,24,22,22,22,19,10,11,8,9,23,21,27,402,709,
scooby_state_402dc3|60|0 691,1,0,0,0,0,0,0,0,0,0,1,0,0,0,693,
scooby_state_403083|47|1 661,0,0,0,0,0,0,2,0,0,0,2,0,0,0,665,
scooby_state_403083|30|1 611,0,1,2,1,3,1,2,1,2,0,31,1,1,4,661,
scooby_state_403083|59|1 654,1,0,0,0,0,2,0,0,0,0,2,0,0,2,661,
scooby_state_403083|61|1 657,0,0,0,0,1,0,0,0,0,0,0,0,0,0,658,
scooby_state_403083|51|1 637,1,0,0,0,1,1,0,0,0,0,4,0,0,0,644,
scooby_state_40307e|6|-1 635,0,0,0,0,0,0,0,0,1,0,0,0,0,1,637,
scooby_state_403083|54|1 586,0,1,2,2,1,1,3,1,5,0,24,1,1,5,633,
scooby_state_402e18|54|0 71,0,0,0,0,0,1,0,0,0,0,0,561,0,0,633,
scooby_state_403083|9|0 606,0,0,0,0,0,0,0,0,0,0,2,18,0,0,626,
scooby_state_403083|17|1 618,0,0,0,0,0,1,0,1,0,0,1,0,0,1,622,
scooby_state_40307e|44|1 610,0,0,1,1,0,0,0,0,1,0,0,0,1,0,614,
scooby_state_403083|52|1 605,0,1,0,0,0,0,2,0,0,0,4,0,0,0,612,
scooby_state_403083|4|1 551,0,1,3,1,2,1,2,1,2,0,40,1,1,5,611,
scooby_state_403083|26|1 608,0,0,0,0,1,0,0,0,0,0,2,0,0,0,611,
scooby_state_403083|21|1 569,0,2,3,1,2,2,2,1,2,0,17,2,1,5,609,
scooby_state_403083|44|1 605,0,0,0,0,1,0,0,1,0,0,1,0,0,0,608,
scooby_state_403083|38|1 585,0,0,2,1,0,1,0,0,0,0,2,0,0,0,591,
scooby_state_403083|12|1 587,1,0,0,0,0,0,0,0,0,0,3,0,0,0,591,
scooby_state_403083|23|1 568,0,0,1,0,0,0,0,0,0,0,14,0,0,0,583,
scooby_state_40307e|39|-1 580,1,0,0,0,0,0,0,0,0,0,0,0,0,0,581,
scooby_state_402f3c|42|-13 573,0,0,0,0,0,2,0,0,0,0,0,0,0,0,575,
scooby_state_403083|1|1 564,0,0,0,1,0,1,0,0,0,0,9,0,0,0,575,
scooby_state_403083|15|1 547,0,1,0,1,0,0,0,1,3,0,5,0,0,2,560,
scooby_state_403083|19|1 541,0,1,0,0,0,1,0,0,0,0,11,0,2,0,556,
scooby_state_403083|11|1 544,0,0,0,0,0,0,0,0,0,0,4,0,0,0,548,
scooby_state_403083|57|0 536,0,0,1,0,0,0,0,0,0,1,0,7,0,0,545,
scooby_state_403083|56|1 541,0,0,0,0,0,1,0,0,0,0,0,1,1,0,544,
scooby_state_403083|62|1 525,0,1,0,0,0,0,0,0,0,0,12,0,1,0,539,
scooby_state_403083|25|1 491,0,0,3,0,2,2,2,1,0,0,8,0,0,0,509,
scooby_state_402f85|41|0 507,0,0,0,0,0,0,0,0,0,0,0,0,0,0,507,
scooby_state_403083|28|1 502,0,0,0,0,1,0,1,0,0,0,1,1,0,0,506,
scooby_state_403083|60|1 486,0,0,0,0,0,1,0,1,1,0,6,0,0,1,496,
scooby_state_403083|2|1 477,0,2,0,1,0,0,0,0,2,0,4,1,0,4,491,
scooby_state_403083|50|1 484,1,0,0,0,0,1,0,0,0,0,1,0,0,4,491,
scooby_state_403083|6|1 479,0,0,0,0,0,0,0,0,0,2,3,1,0,0,485,
scooby_state_403083|13|1 458,0,0,0,1,0,0,0,0,0,0,2,1,0,7,469,
scooby_state_403083|53|1 464,0,0,0,0,0,0,0,0,0,0,3,0,0,1,468,
scooby_state_403083|16|1 459,0,0,0,1,0,0,0,0,0,0,1,0,0,1,462,
scooby_state_40307e|8|0 461,0,0,0,0,0,0,0,0,0,0,0,0,0,0,461,
scooby_state_403083|63|1 452,0,1,0,0,0,0,1,1,0,0,2,0,1,0,458,
scooby_state_403083|5|1 453,0,0,1,0,0,0,1,0,0,0,3,0,0,0,458,
scooby_state_403083|22|1 447,0,1,0,0,0,0,0,0,0,0,3,0,0,0,451,
scooby_state_403083|27|1 428,0,3,0,1,0,0,0,0,2,0,6,1,0,5,446,
scooby_state_403083|3|1 437,0,0,0,1,0,0,0,0,2,0,1,0,0,0,441,
scooby_state_403083|20|1 420,0,2,0,0,0,0,0,0,0,0,15,0,1,0,438,
scooby_state_403083|18|1 425,0,1,0,1,0,0,0,0,2,0,7,0,0,0,436,
scooby_state_40307e|40|1 431,0,0,0,0,0,0,0,0,1,0,0,0,0,0,432,
scooby_state_403083|37|1 426,0,0,0,0,0,0,0,0,0,0,2,0,0,1,429,
scooby_state_40307e|39|0 425,0,0,0,1,0,0,0,0,0,0,0,0,0,0,426,
scooby_state_403083|31|1 420,0,0,1,0,0,1,0,0,0,0,2,0,0,0,424,
scooby_state_403083|32|1 413,0,0,1,0,0,0,0,0,0,0,9,0,0,0,423,
scooby_state_403083|14|1 420,0,0,0,0,1,0,0,0,0,0,2,0,0,0,423,
scooby_state_40307e|38|-1 420,0,0,0,0,0,0,0,0,0,0,0,0,0,1,421,
scooby_state_40307e|48|1 415,0,0,0,0,0,0,0,0,0,0,0,1,0,0,416,
scooby_state_403083|34|1 410,0,0,0,0,0,0,0,0,1,0,5,0,0,0,416,
scooby_state_40307e|9|-1 415,0,0,0,0,0,0,0,0,0,0,0,0,0,0,415,
scooby_state_40307e|56|1 414,0,0,0,0,0,0,0,0,0,0,0,0,0,0,414,
scooby_state_403083|46|1 408,0,0,0,0,0,0,0,0,1,0,3,0,0,0,412,
scooby_state_403083|35|1 407,0,0,0,0,0,0,1,0,0,0,1,1,0,0,410,
scooby_state_40307e|9|0 407,0,0,0,0,0,0,0,0,1,0,1,0,0,0,409,
scooby_state_403039|40|-2 0,0,2,12,0,0,0,0,0,0,0,395,0,0,0,409,
scooby_state_403083|29|1 403,0,0,0,1,0,0,0,0,2,0,1,0,0,0,407,
scooby_state_40307e|7|-1 391,0,0,0,0,0,0,1,0,0,0,1,0,0,0,393,
scooby_state_40307e|6|0 386,0,0,0,0,0,0,0,0,0,0,0,0,0,0,386,
scooby_state_40307e|54|-1 380,0,0,0,0,0,0,0,0,0,0,0,0,0,0,380,
scooby_state_40307e|42|1 379,0,0,0,0,0,0,0,0,0,0,0,0,0,0,379,
scooby_state_403083|39|0 373,0,0,0,0,0,0,0,0,0,0,1,1,0,0,375,
scooby_state_40307e|7|0 370,0,0,0,0,0,0,0,0,0,0,0,1,0,0,371,
scooby_state_403039|43|-2 0,0,0,0,0,0,0,0,0,0,0,368,0,0,1,369,
scooby_state_40307e|56|-1 365,0,1,0,0,0,0,0,0,1,0,0,0,0,0,367,
scooby_state_40307e|44|-1 360,0,0,0,0,0,0,0,0,1,1,0,0,0,0,362,
scooby_state_403083|24|0 342,0,0,0,0,0,0,0,0,0,0,2,13,0,0,357,
scooby_state_40307e|54|0 341,0,0,0,0,0,0,1,0,0,0,0,1,0,0,343,
scooby_state_40307e|40|-1 342,0,0,0,0,0,0,0,0,0,0,0,0,0,0,342,
scooby_state_40307e|7|1 340,0,0,0,0,0,1,0,0,0,0,1,0,0,0,342,
scooby_state_403012|55|-2 199,1,129,0,0,0,0,0,0,0,0,0,3,0,0,332,
scooby_state_40307e|0|0 325,0,0,0,0,0,0,0,0,0,0,0,0,0,0,325,
scooby_state_403083|0|0 286,0,0,0,0,0,0,0,0,0,0,11,26,0,0,323,
scooby_state_4030ff|54|0 319,0,0,0,1,0,0,0,0,0,0,0,0,0,0,320,
scooby_state_40307e|57|-1 316,0,0,0,0,0,0,0,0,0,0,0,0,0,0,316,
scooby_state_40307e|60|1 297,0,0,0,0,0,0,0,0,0,0,0,0,1,0,298,
scooby_state_402dc7|63|0 0,0,0,0,0,1,1,0,0,0,0,0,294,0,0,296,
scooby_state_40301c|47|-2 179,0,113,0,0,0,0,0,0,0,0,0,0,0,0,292,
scooby_state_402f85|41|-14 195,0,4,0,0,0,0,0,0,0,0,0,92,0,0,291,
scooby_state_403083|38|0 275,0,0,0,0,0,0,0,0,0,0,0,12,0,0,287,
scooby_state_403012|43|-2 68,0,96,0,0,0,0,0,0,0,0,0,120,0,0,284,
scooby_state_40307e|48|-1 280,0,0,0,0,0,0,0,0,0,0,0,0,0,0,280,
scooby_state_40307e|50|1 276,0,0,0,0,0,0,0,0,0,0,0,0,0,0,276,
scooby_state_403083|55|0 268,0,0,0,0,0,0,0,0,0,0,0,0,0,0,268,
scooby_state_40307e|53|-1 263,0,0,0,0,0,0,0,0,0,0,0,0,0,0,263,
scooby_state_40301c|41|0 6,0,257,0,0,0,0,0,0,0,0,0,0,0,0,263,
scooby_state_402dc7|62|-1 12,1,0,0,0,0,0,1,0,0,0,1,248,0,0,263,
scooby_state_402dc7|15|-1 11,1,0,0,1,0,0,0,0,0,0,0,250,0,0,263,
scooby_state_402dc7|54|-1 11,0,0,0,1,0,0,0,0,0,0,0,251,0,0,263,
scooby_state_402dc7|29|-1 11,0,0,1,0,0,0,0,0,0,0,0,250,0,0,262,
scooby_state_403012|6|-2 183,0,73,0,0,0,0,0,0,0,0,0,4,0,0,260,
scooby_state_402dc7|36|-1 11,0,0,0,0,0,0,0,2,0,0,0,245,0,0,258,
scooby_state_402dc7|24|-1 11,0,0,0,0,0,0,1,0,0,0,0,245,0,0,257,
scooby_state_40307e|42|-1 255,0,0,1,0,0,0,0,0,0,0,0,0,1,0,257,
scooby_state_402dc7|31|-1 12,0,1,0,0,0,0,0,0,0,0,0,244,0,0,257,
scooby_state_402dc7|47|-1 11,0,0,0,0,0,0,0,0,0,0,0,245,0,0,256,
scooby_state_40307e|16|-1 255,0,0,0,0,0,0,0,0,0,0,0,0,0,0,255,
scooby_state_403012|45|-2 181,0,66,0,0,0,0,0,0,0,0,0,7,0,0,254,
scooby_state_402dc7|49|-1 11,0,0,0,0,0,0,1,0,0,0,0,241,0,0,253,
scooby_state_402dc7|27|-1 12,0,0,0,0,0,0,0,1,0,0,0,240,0,0,253,
scooby_state_402dc7|28|-1 11,0,0,0,1,0,0,0,0,0,0,0,241,0,0,253,
scooby_state_402dc7|37|-1 11,0,0,0,0,0,0,1,0,0,0,0,240,0,0,252,
scooby_state_402dc7|52|-1 12,0,0,0,0,0,0,0,0,0,0,0,240,0,0,252,
scooby_state_402dc7|13|-1 12,0,0,0,0,0,0,0,0,0,0,0,240,0,0,252,
scooby_state_402dc7|25|-1 11,0,0,0,0,0,1,0,0,0,0,0,240,0,0,252,
scooby_state_402dc7|18|-1 11,0,1,0,0,0,0,0,0,0,0,0,240,0,0,252,
scooby_state_402dc7|44|-1 12,0,0,0,0,0,0,0,0,0,0,0,240,0,0,252,
scooby_state_402dc7|35|-1 11,0,0,0,0,0,0,0,0,0,0,0,241,0,0,252,
scooby_state_402dc7|12|-1 11,0,0,0,0,1,1,0,0,0,0,0,239,0,0,252,
scooby_state_402dc7|20|-1 11,1,0,0,0,0,0,0,0,1,0,0,239,0,0,252,
scooby_state_402dc7|38|-1 11,0,0,0,0,0,1,0,0,0,0,0,240,0,0,252,
scooby_state_402dc7|1|-1 12,0,0,0,0,0,0,0,0,0,0,0,240,0,0,252,
scooby_state_402dc7|43|-1 11,0,1,0,0,0,0,0,0,0,0,0,240,0,0,252,
scooby_state_402dc7|17|-1 11,0,1,0,0,0,0,0,0,0,0,0,240,0,0,252,
scooby_state_402dc7|9|-1 11,0,0,0,0,0,1,0,0,0,0,0,239,0,0,251,
scooby_state_403083|54|0 242,0,0,0,0,0,0,0,0,0,0,3,5,0,0,250,
scooby_state_402dc7|23|-1 11,0,0,0,0,0,0,0,1,0,0,0,236,0,0,248,
scooby_state_402dc7|51|-1 11,0,0,0,0,0,1,0,0,0,0,0,236,0,0,248,
scooby_state_402dc7|2|-1 11,0,0,0,0,1,0,0,0,0,0,0,236,0,0,248,
scooby_state_402dc7|3|-1 11,0,0,1,0,0,0,0,0,0,0,0,236,0,0,248,
scooby_state_402dc7|55|-1 11,0,0,1,0,0,0,0,0,0,0,1,234,0,0,247,
scooby_state_402dc7|7|-1 11,1,0,0,0,0,0,0,0,0,0,0,235,0,0,247,
scooby_state_402dc7|8|-1 12,0,0,0,0,0,0,0,0,0,0,0,235,0,0,247,
scooby_state_402dc7|0|-1 11,0,0,0,0,0,1,0,0,1,0,0,234,0,0,247,
scooby_state_402dc7|4|-1 11,0,0,1,0,0,0,0,0,0,0,0,235,0,0,247,
scooby_state_402dc7|42|-1 11,0,0,1,0,0,0,0,0,0,0,0,235,0,0,247,
scooby_state_402dc7|50|-1 11,0,0,0,0,0,0,1,0,0,0,0,235,0,0,247,
scooby_state_402dc7|6|-1 12,0,0,0,0,0,0,0,0,0,0,1,234,0,0,247,
scooby_state_402dc7|45|-1 12,1,0,0,0,0,0,0,0,0,0,0,234,0,0,247,
scooby_state_403012|46|-2 39,0,77,0,0,0,0,0,0,0,0,0,131,0,0,247,
scooby_state_402dc7|32|-1 12,0,0,0,0,0,0,0,0,0,0,0,235,0,0,247,
scooby_state_402dc7|39|-1 12,0,0,0,0,0,0,0,0,0,0,0,235,0,0,247,
scooby_state_402dc7|48|-1 11,0,0,0,0,0,0,0,0,0,0,0,236,0,0,247,
scooby_state_402dc7|5|-1 11,0,1,0,0,0,0,0,0,0,0,0,235,0,0,247,
scooby_state_402dc7|56|-1 11,0,1,0,0,0,0,0,0,0,0,0,235,0,0,247,
scooby_state_40307e|46|1 246,0,0,0,0,0,0,0,0,0,0,0,0,0,0,246,
scooby_state_402dc7|60|-1 11,1,0,0,0,0,0,0,0,0,0,0,234,0,0,246,
scooby_state_402dc7|16|-1 11,0,0,1,0,0,1,0,0,0,0,0,231,0,0,244,
scooby_state_402dc7|53|-1 11,0,0,0,0,1,0,0,0,0,0,0,231,0,0,243,
scooby_state_402dc7|41|-1 11,0,0,0,1,0,1,0,0,0,0,0,230,0,0,243,
scooby_state_402dc7|40|-1 12,0,0,0,0,0,0,0,0,0,0,0,231,0,0,243,
scooby_state_402dc7|14|-1 12,0,0,0,0,0,0,0,0,0,0,0,230,0,0,242,
scooby_state_403039|40|-1 0,0,0,39,0,0,0,0,0,0,0,203,0,0,0,242,
scooby_state_402dc7|30|-1 11,0,1,0,0,0,0,0,0,0,0,0,230,0,0,242,
scooby_state_402dc7|57|-1 12,0,0,0,0,0,0,0,0,0,0,0,230,0,0,242,
scooby_state_402dc7|59|-1 12,0,0,0,0,0,0,0,0,0,0,0,230,0,0,242,
scooby_state_402dc7|58|-1 11,1,0,0,0,0,0,0,0,0,0,0,230,0,0,242,
scooby_state_402dc7|21|-1 12,0,0,0,0,0,0,0,0,0,0,0,230,0,0,242,
scooby_state_402dc7|34|-1 11,0,0,0,0,0,0,0,0,0,0,0,230,0,0,241,
scooby_state_402dc7|19|-1 12,0,0,0,1,0,0,0,0,0,0,0,228,0,0,241,
scooby_state_402dc7|10|-1 11,0,0,0,0,0,0,0,1,0,0,0,229,0,0,241,
scooby_state_40301c|41|-2 11,0,229,0,0,0,0,0,0,0,0,0,0,0,0,240,
scooby_state_402dc7|11|-1 11,0,0,1,0,0,0,1,0,0,0,0,224,0,0,237,
scooby_state_403039|49|-2 0,0,0,1,0,0,0,0,0,0,0,236,0,0,0,237,
scooby_state_402dc7|46|-1 12,0,0,0,0,0,0,0,0,0,0,0,225,0,0,237,
scooby_state_402dc7|61|-1 10,0,0,1,0,0,0,0,1,0,0,0,224,0,0,236,
scooby_state_40307e|47|1 235,0,0,0,0,0,1,0,0,0,0,0,0,0,0,236,
scooby_state_402dc7|33|-1 11,1,0,0,0,0,0,0,0,0,0,0,220,0,0,232,
scooby_state_402dc7|26|-1 12,0,0,0,0,0,0,0,1,0,0,0,219,0,0,232,
scooby_state_402dc3|32|-5 228,0,0,0,0,0,0,0,1,1,0,0,1,0,0,231,
scooby_state_402dc3|28|-5 231,0,0,0,0,0,0,0,0,0,0,0,0,0,0,231,
scooby_state_402dc3|6|-5 231,0,0,0,0,0,0,0,0,0,0,0,0,0,0,231,
scooby_state_402dc3|15|-5 231,0,0,0,0,0,0,0,0,0,0,0,0,0,0,231,
scooby_state_402dc3|57|-5 231,0,0,0,0,0,0,0,0,0,0,0,0,0,0,231,
scooby_state_402dc3|21|-5 230,0,0,1,0,0,0,0,0,0,0,0,0,0,0,231,
scooby_state_402dc3|22|-5 230,0,1,0,0,0,0,0,0,0,0,0,0,0,0,231,
scooby_state_402dc3|42|-5 229,0,1,0,0,0,0,0,0,0,0,0,1,0,0,231,
scooby_state_402dc3|47|-5 231,0,0,0,0,0,0,0,0,0,0,0,0,0,0,231,
scooby_state_402dc3|9|-5 231,0,0,0,0,0,0,0,0,0,0,0,0,0,0,231,
scooby_state_402dc7|22|-1 11,0,0,0,0,0,0,0,0,0,0,0,220,0,0,231,
scooby_state_402dc3|26|-5 231,0,0,0,0,0,0,0,0,0,0,0,0,0,0,231,
scooby_state_402dc3|2|-5 231,0,0,0,0,0,0,0,0,0,0,0,0,0,0,231,
scooby_state_402dc3|23|-5 230,0,0,0,0,0,0,0,0,0,0,0,1,0,0,231,
scooby_state_402dc3|38|-5 231,0,0,0,0,0,0,0,0,0,0,0,0,0,0,231,
scooby_state_402dc3|19|-5 231,0,0,0,0,0,0,0,0,0,0,0,0,0,0,231,
scooby_state_402dc3|3|-5 231,0,0,0,0,0,0,0,0,0,0,0,0,0,0,231,
scooby_state_402dc3|30|-5 229,1,0,0,0,0,0,1,0,0,0,0,0,0,0,231,
scooby_state_402dc3|13|-5 231,0,0,0,0,0,0,0,0,0,0,0,0,0,0,231,
scooby_state_402dc3|29|-5 231,0,0,0,0,0,0,0,0,0,0,0,0,0,0,231,
scooby_state_402dc3|5|-5 230,0,0,0,0,0,0,0,0,0,0,0,0,1,0,231,
scooby_state_402dc3|48|-5 230,0,0,0,0,0,0,0,0,0,0,0,0,1,0,231,
scooby_state_402dc3|43|-5 231,0,0,0,0,0,0,0,0,0,0,0,0,0,0,231,
scooby_state_402dc3|16|-5 231,0,0,0,0,0,0,0,0,0,0,0,0,0,0,231,
scooby_state_402dc3|33|-5 231,0,0,0,0,0,0,0,0,0,0,0,0,0,0,231,
scooby_state_402dc3|45|-5 231,0,0,0,0,0,0,0,0,0,0,0,0,0,0,231,
scooby_state_402dc3|55|-5 230,0,0,0,0,0,0,0,0,0,1,0,0,0,0,231,
scooby_state_402dc3|49|-5 231,0,0,0,0,0,0,0,0,0,0,0,0,0,0,231,
scooby_state_402dc3|20|-5 230,0,0,0,0,0,0,0,0,0,1,0,0,0,0,231,
scooby_state_402dc3|10|-5 231,0,0,0,0,0,0,0,0,0,0,0,0,0,0,231,
scooby_state_402dc3|39|-5 231,0,0,0,0,0,0,0,0,0,0,0,0,0,0,231,
scooby_state_402dc3|36|-5 231,0,0,0,0,0,0,0,0,0,0,0,0,0,0,231,
scooby_state_402dc3|11|-5 231,0,0,0,0,0,0,0,0,0,0,0,0,0,0,231,
scooby_state_402dc3|18|-5 231,0,0,0,0,0,0,0,0,0,0,0,0,0,0,231,
scooby_state_402dcb|0|-4 1,0,2,0,0,0,0,0,0,0,0,0,227,0,1,231,
scooby_state_402dc3|53|-5 230,0,0,0,0,0,0,0,0,0,0,1,0,0,0,231,
scooby_state_402dc3|8|-5 231,0,0,0,0,0,0,0,0,0,0,0,0,0,0,231,
scooby_state_402dc3|35|-5 231,0,0,0,0,0,0,0,0,0,0,0,0,0,0,231,
scooby_state_402dc3|46|-5 231,0,0,0,0,0,0,0,0,0,0,0,0,0,0,231,
scooby_state_402dc3|25|-5 231,0,0,0,0,0,0,0,0,0,0,0,0,0,0,231,
scooby_state_402dc3|1|-5 231,0,0,0,0,0,0,0,0,0,0,0,0,0,0,231,
scooby_state_402dc3|50|-5 231,0,0,0,0,0,0,0,0,0,0,0,0,0,0,231,
scooby_state_402dc3|40|-5 231,0,0,0,0,0,0,0,0,0,0,0,0,0,0,231,
scooby_state_402dc3|56|-5 230,0,0,0,0,1,0,0,0,0,0,0,0,0,0,231,
scooby_state_402dc3|12|-5 231,0,0,0,0,0,0,0,0,0,0,0,0,0,0,231,
scooby_state_402dc3|52|-5 231,0,0,0,0,0,0,0,0,0,0,0,0,0,0,231,
scooby_state_40307e|10|1 229,0,0,0,0,0,0,0,0,0,0,0,0,0,0,229,
scooby_state_402dc3|37|-5 229,0,0,0,0,0,0,0,0,0,0,0,0,0,0,229,
scooby_state_40307e|0|-1 227,0,0,0,1,0,0,0,0,0,0,0,0,0,0,228,
scooby_state_40307e|8|1 227,0,0,0,0,0,0,0,0,0,0,0,0,0,0,227,
scooby_state_40301c|59|-2 201,0,25,0,0,0,0,0,0,0,0,0,0,0,0,226,
scooby_state_402dc3|44|-5 224,0,0,0,0,0,0,0,0,0,0,0,0,0,1,225,
scooby_state_402dc3|17|-5 225,0,0,0,0,0,0,0,0,0,0,0,0,0,0,225,
scooby_state_40307e|22|-1 225,0,0,0,0,0,0,0,0,0,0,0,0,0,0,225,
scooby_state_402dc3|0|-5 225,0,0,0,0,0,0,0,0,0,0,0,0,0,0,225,
scooby_state_402dc3|27|-5 225,0,0,0,0,0,0,0,0,0,0,0,0,0,0,225,
scooby_state_402dc3|54|-5 225,0,0,0,0,0,0,0,0,0,0,0,0,0,0,225,
scooby_state_402dc3|51|-5 224,0,0,0,0,0,0,0,0,0,0,0,0,0,0,224,
scooby_state_402dc3|4|-5 224,0,0,0,0,0,0,0,0,0,0,0,0,0,0,224,
scooby_state_402dc3|7|-5 224,0,0,0,0,0,0,0,0,0,0,0,0,0,0,224,
scooby_state_402dc3|34|-5 224,0,0,0,0,0,0,0,0,0,0,0,0,0,0,224,
scooby_state_402dc3|41|-5 224,0,0,0,0,0,0,0,0,0,0,0,0,0,0,224,
scooby_state_402dc3|58|-5 224,0,0,0,0,0,0,0,0,0,0,0,0,0,0,224,
scooby_state_402dc3|24|-5 224,0,0,0,0,0,0,0,0,0,0,0,0,0,0,224,
scooby_state_402dc3|31|-5 223,0,0,0,0,1,0,0,0,0,0,0,0,0,0,224,
scooby_state_402dc3|14|-5 223,0,0,0,0,0,0,0,0,0,0,0,1,0,0,224,
scooby_state_403012|2|-2 18,0,82,0,0,0,0,0,0,0,0,0,118,0,0,218,
scooby_state_40307e|58|-1 213,0,0,0,0,0,0,0,0,0,0,0,0,0,0,213,
scooby_state_40307e|58|1 207,0,0,0,0,0,0,0,0,0,0,0,0,0,0,207,
scooby_state_40307e|3|1 204,0,0,0,0,0,0,0,0,1,0,0,0,0,0,205,
scooby_state_403012|55|0 118,0,83,1,0,0,0,0,0,0,0,0,0,0,0,202,
scooby_state_40307e|43|-1 202,0,0,0,0,0,0,0,0,0,0,0,0,0,0,202,
scooby_state_40307e|29|-1 199,0,0,0,0,0,0,0,0,0,0,0,0,0,0,199,
scooby_state_40307e|51|-1 199,0,0,0,0,0,0,0,0,0,0,0,0,0,0,199,
scooby_state_40307e|57|1 198,0,0,0,0,0,0,0,0,0,0,0,0,0,0,198,
scooby_state_40307e|55|-1 195,0,1,0,0,0,0,0,0,0,0,0,0,0,0,196,
scooby_state_402f3c|42|0 195,0,0,0,0,0,0,0,0,0,0,0,0,0,0,195,
scooby_state_40307e|25|1 192,0,0,0,0,0,0,0,0,0,0,0,0,0,0,192,
scooby_state_40307e|20|1 189,0,0,0,0,0,0,0,0,0,0,0,0,0,0,189,
scooby_state_403012|56|-2 101,0,77,0,0,0,0,0,1,0,0,0,3,0,0,182,
scooby_state_4030c1|51|0 0,0,0,0,0,0,0,0,0,0,0,175,0,0,0,175,
scooby_state_40307e|61|1 173,0,0,0,0,0,0,0,0,0,0,0,0,0,0,173,
scooby_state_40307e|11|1 171,0,0,0,0,0,0,0,0,0,0,0,0,0,0,171,
scooby_state_40307e|42|0 171,0,0,0,0,0,0,0,0,0,0,0,0,0,0,171,
scooby_state_40307e|29|1 169,0,0,0,0,0,0,0,0,0,0,0,0,0,0,169,
scooby_state_403039|40|0 0,0,2,6,0,0,0,0,0,0,0,153,7,0,0,168,
scooby_state_40307e|40|0 168,0,0,0,0,0,0,0,0,0,0,0,0,0,0,168,
scooby_state_403012|34|-2 112,0,43,0,0,0,0,0,0,0,0,0,6,0,0,161,
scooby_state_40307e|37|-1 157,0,0,0,0,0,0,0,0,0,0,2,0,0,0,159,
scooby_state_40307e|55|0 157,0,0,0,0,0,0,0,0,0,0,0,0,0,0,157,
scooby_state_40307e|9|1 155,0,0,0,0,0,0,0,0,0,0,1,0,0,1,157,
scooby_state_403012|39|-2 31,0,114,0,0,0,0,0,0,0,0,0,11,0,0,156,
scooby_state_40307e|20|-1 155,0,0,0,0,0,0,0,0,0,0,0,0,0,0,155,
scooby_state_40307e|35|1 153,0,0,0,0,1,0,0,0,0,0,0,0,1,0,155,
scooby_state_40307e|6|1 153,0,0,0,0,0,0,0,0,0,0,0,0,0,0,153,
scooby_state_40307e|18|-1 153,0,0,0,0,0,0,0,0,0,0,0,0,0,0,153,
scooby_state_40307e|1|0 152,0,0,0,0,0,0,0,0,0,0,0,0,0,0,152,
scooby_state_403012|19|-2 51,1,48,0,0,0,0,0,0,0,0,0,50,0,0,150,
scooby_state_40307e|39|1 149,0,0,0,0,0,0,0,0,0,0,0,0,0,0,149,
scooby_state_403039|39|-2 0,0,0,2,0,0,0,0,0,0,0,147,0,0,0,149,
scooby_state_40307e|1|1 148,0,0,0,0,0,0,0,0,0,0,0,0,0,0,148,
scooby_state_40307e|25|-1 147,0,0,0,0,0,0,0,0,0,0,0,0,0,0,147,
scooby_state_40307e|18|1 144,0,0,0,0,0,0,0,0,0,0,0,0,0,0,144,
scooby_state_40307e|24|1 143,0,0,0,0,0,0,0,0,0,0,0,0,0,0,143,
scooby_state_403012|60|-2 69,1,59,0,0,0,0,0,0,0,0,0,13,0,0,142,
scooby_state_40307e|2|1 142,0,0,0,0,0,0,0,0,0,0,0,0,0,0,142,
scooby_state_40307e|63|0 141,0,0,0,0,0,0,0,1,0,0,0,0,0,0,142,
scooby_state_403039|24|-2 0,0,0,0,0,0,0,0,0,0,0,141,0,0,0,141,
scooby_state_403083|55|14 137,0,0,0,0,0,0,0,0,0,0,0,1,0,0,138,
scooby_state_403012|36|-2 60,0,67,0,0,0,0,0,0,0,0,0,8,0,0,135,
scooby_state_403083|42|0 129,0,0,0,0,0,0,0,0,0,0,1,4,0,0,134,
scooby_state_40307e|54|1 131,0,0,0,0,0,0,0,0,0,0,0,0,1,0,132,
scooby_state_40307e|14|1 130,1,0,0,0,0,0,0,0,0,0,0,0,0,0,131,
scooby_state_40307e|2|0 131,0,0,0,0,0,0,0,0,0,0,0,0,0,0,131,
scooby_state_40307e|63|1 129,0,0,0,0,0,0,1,0,0,0,0,0,0,0,130,
scooby_state_40301c|28|-2 15,0,112,0,0,0,0,0,0,0,0,1,0,0,0,128,
scooby_state_40301c|9|-2 15,0,112,0,0,0,0,0,0,0,0,0,0,0,0,127,
scooby_state_403012|57|-2 61,1,59,0,0,0,0,0,1,0,0,0,5,0,0,127,
scooby_state_40307e|22|1 127,0,0,0,0,0,0,0,0,0,0,0,0,0,0,127,
scooby_state_40307e|49|1 126,0,0,0,0,0,0,0,0,0,0,0,0,0,0,126,
scooby_state_40307e|11|-1 124,0,0,0,0,0,1,0,0,0,0,0,0,0,0,125,
scooby_state_40307e|4|0 125,0,0,0,0,0,0,0,0,0,0,0,0,0,0,125,
scooby_state_403012|7|-2 39,0,79,0,0,0,0,0,0,0,0,0,5,0,0,123,
scooby_state_40301c|41|-1 5,0,116,0,1,0,0,0,0,0,0,0,0,1,0,123,
scooby_state_40307e|22|0 122,0,0,0,0,0,0,0,0,0,0,0,0,0,0,122,
scooby_state_403012|8|-2 34,0,80,0,0,0,0,0,0,0,0,0,7,0,0,121,
scooby_state_403012|7|0 6,2,113,0,0,0,0,0,0,0,0,0,0,0,0,121,
scooby_state_403012|23|-2 37,1,68,0,0,0,0,0,0,0,0,0,14,0,0,120,
scooby_state_402f3c|42|1 100,9,3,7,0,0,0,0,1,0,0,0,0,0,0,120,
scooby_state_403039|43|0 4,0,0,1,0,0,0,0,0,0,0,70,43,0,0,118,
scooby_state_403083|41|0 117,0,0,0,0,0,0,0,0,0,0,0,1,0,0,118,
scooby_state_40301c|39|-2 45,1,71,0,0,0,0,0,0,0,0,0,0,0,0,117,
scooby_state_403012|40|-2 29,0,84,0,0,0,0,0,0,0,0,0,3,0,0,116,
scooby_state_40307e|23|1 116,0,0,0,0,0,0,0,0,0,0,0,0,0,0,116,
scooby_state_403083|23|0 111,0,0,0,0,0,0,0,0,0,0,0,5,0,0,116,
scooby_state_40307e|57|0 116,0,0,0,0,0,0,0,0,0,0,0,0,0,0,116,
scooby_state_40307e|52|1 115,0,0,0,0,0,0,0,0,0,0,0,0,0,0,115,
scooby_state_402e04|58|0 46,2,1,1,19,11,8,12,4,1,1,5,2,1,0,114,
scooby_state_403083|8|0 113,0,0,0,0,0,0,0,0,0,0,0,0,0,0,113,
scooby_state_40307e|62|1 112,0,0,0,0,0,0,0,0,0,0,0,0,0,0,112,
scooby_state_403012|41|-2 29,0,75,0,0,0,0,0,0,0,0,0,8,0,0,112,
scooby_state_403012|41|0 6,0,106,0,0,0,0,0,0,0,0,0,0,0,0,112,
scooby_state_403012|7|-1 2,0,107,0,0,0,0,0,0,0,0,0,1,0,1,111,
scooby_state_403083|40|0 110,0,0,0,0,0,0,0,0,0,0,0,1,0,0,111,
scooby_state_40307e|16|1 109,0,0,0,0,0,0,0,0,0,1,0,0,0,0,110,
scooby_state_403083|6|0 108,0,0,0,0,0,0,0,0,0,0,0,2,0,0,110,
scooby_state_403012|17|-2 64,0,40,0,0,0,0,0,0,0,0,0,5,0,0,109,
scooby_state_40307e|37|1 109,0,0,0,0,0,0,0,0,0,0,0,0,0,0,109,
scooby_state_40307e|51|1 109,0,0,0,0,0,0,0,0,0,0,0,0,0,0,109,
scooby_state_40307e|14|-1 109,0,0,0,0,0,0,0,0,0,0,0,0,0,0,109,
scooby_state_40307e|26|1 109,0,0,0,0,0,0,0,0,0,0,0,0,0,0,109,
scooby_state_40307e|46|-1 109,0,0,0,0,0,0,0,0,0,0,0,0,0,0,109,
scooby_state_40307e|59|1 107,0,0,0,0,0,0,0,0,0,0,0,0,1,0,108,
scooby_state_403012|58|-2 42,0,65,0,0,0,0,0,0,0,0,0,1,0,0,108,
scooby_state_40307e|24|-1 108,0,0,0,0,0,0,0,0,0,0,0,0,0,0,108,
scooby_state_403039|57|-2 1,0,0,0,0,0,0,0,0,0,0,107,0,0,0,108,
scooby_state_403012|42|-2 35,0,68,0,0,0,0,0,0,0,0,0,4,0,0,107,
scooby_state_403083|56|0 107,0,0,0,0,0,0,0,0,0,0,0,0,0,0,107,
scooby_state_40307e|55|1 107,0,0,0,0,0,0,0,0,0,0,0,0,0,0,107,
scooby_state_403012|24|-2 27,0,73,0,0,0,0,0,0,0,0,0,7,0,0,107,
scooby_state_40307e|11|0 107,0,0,0,0,0,0,0,0,0,0,0,0,0,0,107,
scooby_state_403012|63|0 21,0,85,0,0,0,0,0,0,0,0,0,0,0,0,106,
scooby_state_40307e|32|-1 106,0,0,0,0,0,0,0,0,0,0,0,0,0,0,106,
scooby_state_403012|16|-2 53,0,45,0,0,0,0,0,0,0,0,0,6,0,0,104,
scooby_state_40307e|10|0 103,0,0,0,0,0,0,0,0,0,0,0,0,0,0,103,
scooby_state_40307e|47|-1 102,1,0,0,0,0,0,0,0,0,0,0,0,0,0,103,
scooby_state_403012|48|-2 43,0,49,0,0,0,0,0,0,0,0,0,10,0,0,102,
scooby_state_40307e|17|1 102,0,0,0,0,0,0,0,0,0,0,0,0,0,0,102,
scooby_state_403012|31|-1 33,0,42,0,0,0,0,0,0,0,1,0,25,0,0,101,
scooby_state_40307e|6|-29 99,0,0,0,0,0,0,0,0,0,0,0,0,0,0,99,
scooby_state_40307e|60|-1 99,0,0,0,0,0,0,0,0,0,0,0,0,0,0,99,
scooby_state_40307e|12|-1 99,0,0,0,0,0,0,0,0,0,0,0,0,0,0,99,
scooby_state_40307e|32|0 95,0,0,0,0,0,0,0,0,0,0,0,0,1,2,98,
scooby_state_403012|52|-2 30,0,60,0,0,0,0,0,0,0,0,0,8,0,0,98,
scooby_state_40307e|61|-1 98,0,0,0,0,0,0,0,0,0,0,0,0,0,0,98,
scooby_state_40307e|30|1 97,0,0,0,0,0,0,0,0,0,0,0,0,0,0,97,
scooby_state_40307e|25|0 97,0,0,0,0,0,0,0,0,0,0,0,0,0,0,97,
scooby_state_40307e|4|1 97,0,0,0,0,0,0,0,0,0,0,0,0,0,0,97,
scooby_state_403012|26|-2 19,0,70,0,0,0,0,0,0,0,0,0,8,0,0,97,
scooby_state_40307e|38|1 96,0,0,0,0,0,0,0,0,0,0,0,0,0,0,96,
scooby_state_403012|54|-2 30,0,56,0,0,0,0,0,0,0,0,0,8,0,0,94,
scooby_state_40307e|62|-1 94,0,0,0,0,0,0,0,0,0,0,0,0,0,0,94,
scooby_state_403012|50|-2 54,0,37,0,0,0,0,0,0,0,0,0,3,0,0,94,
scooby_state_40307e|59|-1 94,0,0,0,0,0,0,0,0,0,0,0,0,0,0,94,
scooby_state_40307e|12|1 94,0,0,0,0,0,0,0,0,0,0,0,0,0,0,94,
scooby_state_403012|9|-2 29,0,56,0,0,0,0,0,0,0,0,0,8,0,0,93,
scooby_state_403012|55|-1 40,0,52,0,0,0,0,0,0,0,0,0,0,0,0,92,
scooby_state_403012|4|-2 24,0,57,0,0,0,0,0,0,0,0,0,11,0,0,92,
scooby_state_40307e|50|-1 92,0,0,0,0,0,0,0,0,0,0,0,0,0,0,92,
scooby_state_403012|20|-2 23,0,57,0,0,0,0,0,0,0,0,0,11,0,0,91,
scooby_state_403012|42|0 2,0,89,0,0,0,0,0,0,0,0,0,0,0,0,91,
scooby_state_403012|38|-2 27,0,56,0,0,0,0,0,0,0,0,0,8,0,0,91,
scooby_state_40307e|3|0 90,0,0,0,0,0,0,0,0,0,0,0,0,0,0,90,
scooby_state_403039|10|-2 1,0,0,2,0,0,0,0,0,0,0,87,0,0,0,90,
scooby_state_40307e|36|1 90,0,0,0,0,0,0,0,0,0,0,0,0,0,0,90,
scooby_state_40307e|10|-1 89,0,0,0,0,0,0,0,0,0,0,0,0,0,0,89,
scooby_state_403012|10|-2 22,0,60,0,0,0,0,0,0,0,0,0,7,0,0,89,
scooby_state_40307e|34|1 88,0,0,0,0,0,0,0,0,0,0,0,0,0,0,88,
scooby_state_40307e|48|0 88,0,0,0,0,0,0,0,0,0,0,0,0,0,0,88,
scooby_state_40307e|52|-1 86,0,0,0,0,0,0,0,0,0,0,0,0,0,0,86,
scooby_state_403012|21|-2 22,0,45,0,0,0,1,0,0,0,0,0,18,0,0,86,
scooby_state_40307e|38|0 84,0,0,0,0,0,0,0,0,0,0,0,0,0,0,84,
scooby_state_403012|30|-2 20,0,54,0,0,0,0,0,0,0,0,0,10,0,0,84,
scooby_state_40307e|53|1 84,0,0,0,0,0,0,0,0,0,0,0,0,0,0,84,
scooby_state_403012|11|-2 34,0,38,0,0,0,0,0,0,0,0,0,11,0,0,83,
scooby_state_403012|22|-2 21,0,59,0,0,0,0,0,0,0,0,0,3,0,0,83,
scooby_state_40307e|49|-1 83,0,0,0,0,0,0,0,0,0,0,0,0,0,0,83,
scooby_state_40307e|27|-1 82,0,0,0,0,0,0,0,0,0,0,0,0,0,0,82,
scooby_state_40307e|3|-1 82,0,0,0,0,0,0,0,0,0,0,0,0,0,0,82,
scooby_state_40307e|35|-1 82,0,0,0,0,0,0,0,0,0,0,0,0,0,0,82,
scooby_state_40307e|19|-1 82,0,0,0,0,0,0,0,0,0,0,0,0,0,0,82,
scooby_state_40307e|5|-1 79,0,0,0,0,0,0,0,0,0,0,0,0,0,0,79,
scooby_state_403012|0|-2 26,0,45,0,0,0,0,0,0,0,0,0,7,0,0,78,
scooby_state_403012|59|-2 19,0,54,0,0,0,0,0,0,0,0,0,5,0,0,78,
scooby_state_403012|14|-2 27,0,49,0,0,0,0,0,0,0,0,0,2,0,0,78,
scooby_state_403012|12|-2 27,1,47,0,0,0,0,0,0,0,0,0,3,0,0,78,
scooby_state_40307e|28|1 77,0,0,0,0,0,0,0,0,0,0,0,0,0,0,77,
scooby_state_403012|62|-1 23,0,50,0,0,0,0,0,0,0,0,0,4,0,0,77,
scooby_state_40307e|54|6 76,0,0,0,0,0,0,0,0,0,0,0,1,0,0,77,
scooby_state_403083|25|0 76,0,0,0,0,0,0,0,0,0,0,0,1,0,0,77,
scooby_state_40307e|44|0 77,0,0,0,0,0,0,0,0,0,0,0,0,0,0,77,
scooby_state_403012|3|-2 18,1,44,0,0,0,0,0,0,0,0,0,14,0,0,77,
scooby_state_403039|13|-2 0,0,0,1,0,0,0,0,0,0,0,76,0,0,0,77,
scooby_state_403012|37|-2 16,0,52,0,0,0,0,0,0,0,0,0,7,0,0,75,
scooby_state_403083|59|0 74,0,0,0,0,0,0,0,0,0,0,0,0,0,0,74,
scooby_state_40307e|27|1 74,0,0,0,0,0,0,0,0,0,0,0,0,0,0,74,
scooby_state_402f3c|42|-12 60,0,0,0,0,0,0,0,0,0,0,0,14,0,0,74,
scooby_state_40307e|5|1 74,0,0,0,0,0,0,0,0,0,0,0,0,0,0,74,
scooby_state_40301c|10|-2 48,0,25,0,1,0,0,0,0,0,0,0,0,0,0,74,
scooby_state_403012|33|-2 31,0,36,0,0,0,0,0,0,0,0,0,6,0,0,73,
scooby_state_40307e|43|0 73,0,0,0,0,0,0,0,0,0,0,0,0,0,0,73,
scooby_state_403083|22|0 72,0,0,0,0,0,0,0,0,0,0,0,1,0,0,73,
scooby_state_402f85|41|-13 32,0,0,0,0,0,0,0,0,0,0,0,40,0,0,72,
scooby_state_40307e|26|-1 72,0,0,0,0,0,0,0,0,0,0,0,0,0,0,72,
scooby_state_40301c|62|-1 9,0,63,0,0,0,0,0,0,0,0,0,0,0,0,72,
scooby_state_40307e|19|1 72,0,0,0,0,0,0,0,0,0,0,0,0,0,0,72,
scooby_state_40307e|15|1 72,0,0,0,0,0,0,0,0,0,0,0,0,0,0,72,
scooby_state_40307e|4|-1 71,0,0,1,0,0,0,0,0,0,0,0,0,0,0,72,
scooby_state_403012|53|-2 30,1,36,0,0,0,0,0,0,0,0,0,4,0,0,71,
scooby_state_403012|1|-2 31,0,36,0,0,0,0,0,0,0,0,0,4,0,0,71,
scooby_state_403012|25|-2 20,1,44,0,0,0,0,0,0,0,0,0,6,0,0,71,
scooby_state_403012|18|-2 21,1,43,0,0,0,0,0,0,0,0,0,6,0,0,71,
scooby_state_40307e|44|3 70,0,0,0,0,0,0,0,0,0,0,0,0,0,0,70,
scooby_state_40307e|33|-1 69,0,0,0,0,1,0,0,0,0,0,0,0,0,0,70,
scooby_state_403039|0|-2 0,0,0,0,0,0,0,0,0,0,0,70,0,0,0,70,
scooby_state_40307e|42|3 70,0,0,0,0,0,0,0,0,0,0,0,0,0,0,70,
scooby_state_403012|5|-1 16,0,40,0,0,0,0,0,0,0,0,0,14,0,0,70,
scooby_state_403012|44|-2 16,1,46,0,0,0,0,0,0,0,0,0,6,0,0,69,
scooby_state_40307e|2|-1 69,0,0,0,0,0,0,0,0,0,0,0,0,0,0,69,
scooby_state_403012|13|-2 35,0,25,0,0,0,0,0,0,0,0,0,9,0,0,69,
scooby_state_40307e|1|-1 68,0,0,0,0,0,0,0,0,0,0,0,0,0,0,68,
scooby_state_403012|35|-2 15,0,47,0,0,0,0,0,0,0,0,0,5,0,0,67,
scooby_state_40307e|31|1 67,0,0,0,0,0,0,0,0,0,0,0,0,0,0,67,
scooby_state_40307e|35|28 67,0,0,0,0,0,0,0,0,0,0,0,0,0,0,67,
scooby_state_40307e|15|-1 67,0,0,0,0,0,0,0,0,0,0,0,0,0,0,67,
scooby_state_403012|8|-1 6,0,59,0,0,0,0,0,0,0,0,0,2,0,0,67,
scooby_state_403012|61|-2 33,0,30,0,0,0,0,0,0,0,0,0,3,0,0,66,
scooby_state_40307e|47|4 65,0,0,0,0,0,1,0,0,0,0,0,0,0,0,66,
scooby_state_403083|57|2 65,0,0,0,0,0,0,0,0,0,0,0,1,0,0,66,
scooby_state_403012|32|-2 25,0,38,0,0,0,0,0,0,0,0,0,3,0,0,66,
scooby_state_403012|51|-2 28,0,34,0,0,0,0,0,0,0,0,0,3,0,0,65,
scooby_state_40307e|10|3 64,0,0,0,0,0,0,0,0,0,0,0,0,1,0,65,
scooby_state_402dc7|6|-2 0,0,0,0,0,0,0,0,0,0,0,0,64,0,0,64,
scooby_state_40307e|3|3 64,0,0,0,0,0,0,0,0,0,0,0,0,0,0,64,
scooby_state_403039|47|-2 1,0,0,3,0,0,0,0,0,0,0,60,0,0,0,64,
scooby_state_403012|49|-2 20,0,42,0,0,0,0,0,0,0,0,0,2,0,0,64,
scooby_state_403083|43|2 60,0,0,0,0,0,0,0,0,0,0,1,3,0,0,64,
scooby_state_403039|41|-2 0,1,0,2,0,0,0,0,0,0,0,60,0,0,0,63,
scooby_state_403012|31|0 15,0,48,0,0,0,0,0,0,0,0,0,0,0,0,63,
scooby_state_40301c|55|-2 35,0,28,0,0,0,0,0,0,0,0,0,0,0,0,63,
scooby_state_40307e|63|3 63,0,0,0,0,0,0,0,0,0,0,0,0,0,0,63,
scooby_state_403083|26|0 60,0,0,0,0,0,0,0,0,1,0,0,1,0,0,62,
scooby_state_402e04|59|0 61,0,0,0,0,0,0,0,0,0,0,0,0,1,0,62,
scooby_state_40307e|46|3 61,0,0,0,0,0,0,0,0,0,0,0,0,0,0,61,
scooby_state_402f85|41|-2 44,0,0,0,0,0,0,0,0,0,0,0,16,0,0,60,
scooby_state_403012|28|-2 17,0,37,0,0,0,0,0,0,0,0,0,6,0,0,60,
scooby_state_403039|14|-2 0,0,0,3,0,0,0,0,0,0,0,57,0,0,0,60,
scooby_state_40307e|9|3 59,0,0,0,0,0,0,0,0,0,0,0,0,0,0,59,
scooby_state_402dc7|11|-2 0,0,0,0,0,0,0,0,0,0,0,0,59,0,0,59,
scooby_state_40307e|58|-3 59,0,0,0,0,0,0,0,0,0,0,0,0,0,0,59,
scooby_state_403012|15|-2 19,0,36,0,0,0,0,0,0,0,0,0,4,0,0,59,
scooby_state_402dc7|25|-2 0,0,0,0,0,0,0,1,0,0,0,0,58,0,0,59,
scooby_state_403083|5|0 57,0,0,0,0,0,0,0,0,0,0,0,2,0,0,59,
scooby_state_40307e|13|3 59,0,0,0,0,0,0,0,0,0,0,0,0,0,0,59,
scooby_state_40307e|60|3 59,0,0,0,0,0,0,0,0,0,0,0,0,0,0,59,
scooby_state_403012|6|-1 32,0,26,0,0,0,0,0,0,0,0,0,0,0,0,58,
scooby_state_40307e|16|0 57,0,0,0,0,1,0,0,0,0,0,0,0,0,0,58,
scooby_state_40307e|12|3 58,0,0,0,0,0,0,0,0,0,0,0,0,0,0,58,
scooby_state_40307e|5|0 55,0,0,1,1,0,0,0,0,0,0,0,0,0,0,57,
scooby_state_403012|40|-1 7,0,46,0,0,0,0,0,0,0,0,0,4,0,0,57,
scooby_state_40307e|43|1 57,0,0,0,0,0,0,0,0,0,0,0,0,0,0,57,
scooby_state_403012|43|0 9,0,47,0,1,0,0,0,0,0,0,0,0,0,0,57,
scooby_state_40307e|21|1 57,0,0,0,0,0,0,0,0,0,0,0,0,0,0,57,
scooby_state_40307e|54|13 57,0,0,0,0,0,0,0,0,0,0,0,0,0,0,57,
scooby_state_403039|6|-2 0,0,1,0,0,0,0,0,0,0,0,56,0,0,0,57,
scooby_state_40307e|31|-1 57,0,0,0,0,0,0,0,0,0,0,0,0,0,0,57,
scooby_state_40307e|34|3 56,0,0,0,0,0,0,0,0,0,0,0,0,0,0,56,
scooby_state_40307e|0|-3 56,0,0,0,0,0,0,0,0,0,0,0,0,0,0,56,
scooby_state_40307e|42|-3 56,0,0,0,0,0,0,0,0,0,0,0,0,0,0,56,
scooby_state_40307e|13|1 56,0,0,0,0,0,0,0,0,0,0,0,0,0,0,56,
scooby_state_40301c|40|-1 33,0,22,0,0,0,0,0,0,0,0,0,0,0,0,55,
scooby_state_40307e|45|1 55,0,0,0,0,0,0,0,0,0,0,0,0,0,0,55,
scooby_state_40307e|43|3 54,0,0,0,0,0,0,0,0,1,0,0,0,0,0,55,
scooby_state_40301c|6|-2 17,0,38,0,0,0,0,0,0,0,0,0,0,0,0,55,
scooby_state_40307e|14|0 55,0,0,0,0,0,0,0,0,0,0,0,0,0,0,55,
scooby_state_40307e|58|3 55,0,0,0,0,0,0,0,0,0,0,0,0,0,0,55,
scooby_state_402dc7|46|-2 0,0,0,0,0,0,0,0,0,0,0,0,54,0,0,54,
scooby_state_402dc7|39|-2 0,0,0,0,0,0,0,0,0,0,0,0,54,0,0,54,
scooby_state_40307e|14|3 54,0,0,0,0,0,0,0,0,0,0,0,0,0,0,54,
scooby_state_402dc7|16|-2 0,0,0,0,0,0,0,0,0,0,0,0,54,0,0,54,
scooby_state_402dc7|41|-2 0,0,0,0,0,0,0,0,0,0,0,0,54,0,0,54,
scooby_state_40307e|60|-3 54,0,0,0,0,0,0,0,0,0,0,0,0,0,0,54,
scooby_state_40307e|34|-1 54,0,0,0,0,0,0,0,0,0,0,0,0,0,0,54,
scooby_state_402dc7|33|-2 0,0,0,0,0,0,0,0,0,0,0,0,54,0,0,54,
scooby_state_403012|39|-1 5,0,48,0,0,0,0,0,0,0,0,0,1,0,0,54,
scooby_state_403012|47|-2 15,0,35,0,0,0,0,0,0,0,0,0,4,0,0,54,
scooby_state_402dc7|1|-2 0,0,0,0,0,0,0,0,0,0,0,0,54,0,0,54,
scooby_state_40307e|61|3 54,0,0,0,0,0,0,0,0,0,0,0,0,0,0,54,
scooby_state_403083|58|0 53,0,0,0,0,0,0,0,0,0,0,0,1,0,0,54,
scooby_state_403039|48|-2 0,0,0,0,0,0,0,0,0,0,0,54,0,0,0,54,
scooby_state_40307e|26|3 54,0,0,0,0,0,0,0,0,0,0,0,0,0,0,54,
scooby_state_403039|18|-2 0,0,0,1,0,0,0,0,0,0,0,52,0,0,0,53,
scooby_state_403083|42|2 44,0,0,0,0,0,0,0,0,0,0,1,8,0,0,53,
scooby_state_402dc7|48|-2 0,0,0,0,0,0,0,0,0,0,0,0,53,0,0,53,
scooby_state_40307e|8|-3 52,0,0,0,0,0,0,0,0,0,0,0,0,0,0,52,
scooby_state_40307e|21|-1 52,0,0,0,0,0,0,0,0,0,0,0,0,0,0,52,
scooby_state_40307e|57|3 52,0,0,0,0,0,0,0,0,0,0,0,0,0,0,52,
scooby_state_40307e|2|-3 51,0,0,0,0,0,0,1,0,0,0,0,0,0,0,52,
scooby_state_40307e|4|3 52,0,0,0,0,0,0,0,0,0,0,0,0,0,0,52,
scooby_state_40307e|12|0 52,0,0,0,0,0,0,0,0,0,0,0,0,0,0,52,
scooby_state_403083|7|-29 51,1,0,0,0,0,0,0,0,0,0,0,0,0,0,52,
scooby_state_40307e|28|-1 52,0,0,0,0,0,0,0,0,0,0,0,0,0,0,52,
scooby_state_403039|39|-1 0,0,0,6,0,0,0,0,0,0,0,45,0,0,0,51,
scooby_state_40307e|33|1 51,0,0,0,0,0,0,0,0,0,0,0,0,0,0,51,
scooby_state_403083|10|0 51,0,0,0,0,0,0,0,0,0,0,0,0,0,0,51,
scooby_state_40307e|13|-1 51,0,0,0,0,0,0,0,0,0,0,0,0,0,0,51,
scooby_state_403012|29|-2 21,0,26,0,0,0,0,0,0,0,0,0,4,0,0,51,
scooby_state_403012|27|-2 10,0,35,0,0,0,0,0,0,0,0,0,6,0,0,51,
scooby_state_40307e|48|-3 51,0,0,0,0,0,0,0,0,0,0,0,0,0,0,51,
scooby_state_403083|59|2 51,0,0,0,0,0,0,0,0,0,0,0,0,0,0,51,
scooby_state_40307e|52|3 51,0,0,0,0,0,0,0,0,0,0,0,0,0,0,51,
scooby_state_40307e|3|-3 51,0,0,0,0,0,0,0,0,0,0,0,0,0,0,51,
scooby_state_40307e|16|-3 50,0,0,0,0,0,0,0,0,0,0,0,0,0,0,50,
scooby_state_40307e|45|-1 50,0,0,0,0,0,0,0,0,0,0,0,0,0,0,50,
scooby_state_40301c|7|-2 9,0,41,0,0,0,0,0,0,0,0,0,0,0,0,50,
scooby_state_403083|47|0 48,0,0,0,0,0,0,0,0,0,0,0,2,0,0,50,
scooby_state_40307e|59|0 50,0,0,0,0,0,0,0,0,0,0,0,0,0,0,50,
scooby_state_40307e|7|3 50,0,0,0,0,0,0,0,0,0,0,0,0,0,0,50,
scooby_state_40307e|38|-3 49,0,0,0,0,0,0,0,0,0,0,0,0,0,0,49,
scooby_state_402dc7|57|-2 1,0,0,0,0,0,0,0,0,0,0,0,48,0,0,49,
scooby_state_40307e|59|-3 49,0,0,0,0,0,0,0,0,0,0,0,0,0,0,49,
scooby_state_402dc7|49|-2 0,0,0,0,0,0,0,0,0,0,0,0,49,0,0,49,
scooby_state_402dc7|62|0 0,0,0,0,0,0,0,0,0,0,0,0,49,0,0,49,
scooby_state_402dc7|19|-2 0,0,0,0,0,0,0,0,0,0,0,0,49,0,0,49,
scooby_state_402dc7|34|-2 0,0,0,0,0,0,0,0,0,0,0,0,49,0,0,49,
scooby_state_402dc7|24|-2 0,0,0,0,0,0,0,0,0,0,0,0,49,0,0,49,
scooby_state_40307e|62|3 49,0,0,0,0,0,0,0,0,0,0,0,0,0,0,49,
scooby_state_40307e|54|-3 48,0,1,0,0,0,0,0,0,0,0,0,0,0,0,49,
scooby_state_40307e|59|3 49,0,0,0,0,0,0,0,0,0,0,0,0,0,0,49,
scooby_state_403039|55|-2 0,0,0,2,0,0,0,0,0,0,0,47,0,0,0,49,
scooby_state_40307e|54|3 48,0,0,0,0,0,0,0,0,0,0,0,0,0,0,48,
scooby_state_402dc7|26|-2 0,0,0,0,0,0,0,0,0,0,0,0,48,0,0,48,
scooby_state_40307e|45|3 48,0,0,0,0,0,0,0,0,0,0,0,0,0,0,48,
scooby_state_40307e|51|0 48,0,0,0,0,0,0,0,0,0,0,0,0,0,0,48,
scooby_state_40307e|17|-1 48,0,0,0,0,0,0,0,0,0,0,0,0,0,0,48,
scooby_state_40307e|30|3 47,0,0,0,0,0,0,0,0,0,0,0,0,0,0,47,
scooby_state_40307e|24|-3 47,0,0,0,0,0,0,0,0,0,0,0,0,0,0,47,
scooby_state_40307e|61|-2 47,0,0,0,0,0,0,0,0,0,0,0,0,0,0,47,
scooby_state_40307e|6|3 47,0,0,0,0,0,0,0,0,0,0,0,0,0,0,47,
scooby_state_40307e|24|3 47,0,0,0,0,0,0,0,0,0,0,0,0,0,0,47,
scooby_state_40307e|56|3 47,0,0,0,0,0,0,0,0,0,0,0,0,0,0,47,
scooby_state_403083|48|4 45,0,0,0,0,0,0,0,0,0,0,1,0,0,0,46,
scooby_state_40307e|36|-3 46,0,0,0,0,0,0,0,0,0,0,0,0,0,0,46,
scooby_state_403012|24|-1 9,0,36,0,0,0,0,0,0,0,0,0,1,0,0,46,
scooby_state_40307e|55|3 46,0,0,0,0,0,0,0,0,0,0,0,0,0,0,46,
scooby_state_40307e|40|3 46,0,0,0,0,0,0,0,0,0,0,0,0,0,0,46,
scooby_state_402fbc|43|0 46,0,0,0,0,0,0,0,0,0,0,0,0,0,0,46,
scooby_state_403039|53|-2 0,0,1,0,0,0,0,0,0,0,0,45,0,0,0,46,
scooby_state_40307e|20|3 46,0,0,0,0,0,0,0,0,0,0,0,0,0,0,46,
scooby_state_40307e|22|3 46,0,0,0,0,0,0,0,0,0,0,0,0,0,0,46,
scooby_state_40307e|31|-3 45,0,0,0,0,0,0,0,0,0,0,0,0,0,0,45,
scooby_state_40301c|25|-2 12,0,33,0,0,0,0,0,0,0,0,0,0,0,0,45,
scooby_state_40307e|39|3 45,0,0,0,0,0,0,0,0,0,0,0,0,0,0,45,
scooby_state_40307e|50|-3 45,0,0,0,0,0,0,0,0,0,0,0,0,0,0,45,
scooby_state_40307e|46|-3 45,0,0,0,0,0,0,0,0,0,0,0,0,0,0,45,
scooby_state_40307e|28|3 45,0,0,0,0,0,0,0,0,0,0,0,0,0,0,45,
scooby_state_403039|6|-1 0,0,0,2,0,0,0,0,0,0,0,43,0,0,0,45,
scooby_state_40301c|45|-2 32,0,13,0,0,0,0,0,0,0,0,0,0,0,0,45,
scooby_state_40307e|27|3 45,0,0,0,0,0,0,0,0,0,0,0,0,0,0,45,
scooby_state_40307e|20|0 45,0,0,0,0,0,0,0,0,0,0,0,0,0,0,45,
scooby_state_403012|41|-1 5,0,40,0,0,0,0,0,0,0,0,0,0,0,0,45,
scooby_state_403124|24|0 0,0,0,1,0,0,0,0,0,1,0,43,0,0,0,45,
scooby_state_402dc7|7|-2 0,0,0,0,0,0,0,0,0,0,0,0,44,0,0,44,
scooby_state_402dc7|47|-2 0,0,0,0,0,0,0,0,0,0,0,0,44,0,0,44,
scooby_state_402dc7|21|-2 0,0,0,0,0,0,0,0,0,0,0,0,44,0,0,44,
scooby_state_40307e|32|-3 44,0,0,0,0,0,0,0,0,0,0,0,0,0,0,44,
scooby_state_40301c|47|-1 17,0,27,0,0,0,0,0,0,0,0,0,0,0,0,44,
scooby_state_402dc7|8|-2 0,0,0,0,0,0,0,0,0,0,0,0,44,0,0,44,
scooby_state_402dc7|36|-2 0,0,0,0,0,0,0,0,0,0,0,0,44,0,0,44,
scooby_state_402dc7|5|-2 0,0,0,0,0,0,0,0,0,0,0,0,44,0,0,44,
scooby_state_402dc7|50|-2 0,0,0,0,0,0,0,0,0,0,0,0,44,0,0,44,
scooby_state_402dc7|23|-2 0,0,0,0,0,0,0,0,0,0,0,0,44,0,0,44,
scooby_state_403039|38|-1 0,0,0,1,0,0,0,0,0,0,0,43,0,0,0,44,
scooby_state_403039|38|-2 0,1,0,5,0,0,0,0,0,0,0,38,0,0,0,44,
scooby_state_403039|19|-2 0,0,0,2,0,0,0,0,0,0,0,42,0,0,0,44,
scooby_state_402dc7|4|-2 0,0,0,0,0,0,0,0,0,0,0,0,44,0,0,44,
scooby_state_402dc7|0|-2 0,0,0,0,0,0,0,0,0,0,0,0,44,0,0,44,
scooby_state_40307e|18|3 44,0,0,0,0,0,0,0,0,0,0,0,0,0,0,44,
scooby_state_402dc7|32|-2 0,0,0,0,0,0,0,0,0,0,0,0,44,0,0,44,
scooby_state_40307e|19|-3 44,0,0,0,0,0,0,0,0,0,0,0,0,0,0,44,
scooby_state_402dc7|18|-2 0,0,0,0,0,0,0,0,0,0,0,0,44,0,0,44,
scooby_state_402dc7|30|-2 0,0,0,0,0,0,0,0,0,0,0,0,44,0,0,44,
scooby_state_40307e|51|3 44,0,0,0,0,0,0,0,0,0,0,0,0,0,0,44,
scooby_state_402dc7|59|-2 0,0,0,0,0,0,0,0,0,0,0,0,44,0,0,44,
scooby_state_40301c|11|-2 24,0,20,0,0,0,0,0,0,0,0,0,0,0,0,44,
scooby_state_402dc7|10|-2 0,0,0,0,0,0,0,0,0,0,0,0,43,0,0,43,
scooby_state_40307e|51|-3 43,0,0,0,0,0,0,0,0,0,0,0,0,0,0,43,
scooby_state_40307e|18|0 42,0,0,0,0,1,0,0,0,0,0,0,0,0,0,43,
scooby_state_40307e|21|3 43,0,0,0,0,0,0,0,0,0,0,0,0,0,0,43,
scooby_state_40307e|14|-3 43,0,0,0,0,0,0,0,0,0,0,0,0,0,0,43,
scooby_state_40307e|15|3 43,0,0,0,0,0,0,0,0,0,0,0,0,0,0,43,
scooby_state_403039|23|-2 0,1,0,3,0,0,0,0,0,0,0,39,0,0,0,43,
scooby_state_402dc7|45|-2 0,0,0,0,0,0,0,0,0,0,0,0,43,0,0,43,
scooby_state_40307e|22|-3 43,0,0,0,0,0,0,0,0,0,0,0,0,0,0,43,
scooby_state_402dc7|2|-2 0,0,0,0,0,0,0,0,0,0,0,0,43,0,0,43,
scooby_state_402dc7|54|-2 0,0,0,0,0,0,0,0,0,0,0,0,43,0,0,43,
scooby_state_40307e|43|-3 41,0,0,0,0,1,0,0,0,1,0,0,0,0,0,43,
scooby_state_403039|58|-2 0,0,0,1,0,0,0,0,0,0,0,42,0,0,0,43,
scooby_state_402dc7|22|-2 0,0,0,0,0,0,0,0,0,0,0,0,43,0,0,43,
scooby_state_40301c|57|-2 22,0,21,0,0,0,0,0,0,0,0,0,0,0,0,43,
scooby_state_403039|9|-2 0,0,0,1,0,0,0,0,0,0,0,42,0,0,0,43,
scooby_state_40307e|20|-3 43,0,0,0,0,0,0,0,0,0,0,0,0,0,0,43,
scooby_state_402dc7|15|-2 0,1,0,0,0,0,0,0,0,0,0,0,42,0,0,43,
scooby_state_402dc7|61|-2 0,0,0,0,0,0,0,0,0,0,0,0,43,0,0,43,
scooby_state_403039|27|-2 0,0,0,0,0,0,0,0,0,0,0,42,0,0,0,42,
scooby_state_40307e|25|3 42,0,0,0,0,0,0,0,0,0,0,0,0,0,0,42,
scooby_state_40307e|4|4 42,0,0,0,0,0,0,0,0,0,0,0,0,0,0,42,
scooby_state_40307e|40|-3 42,0,0,0,0,0,0,0,0,0,0,0,0,0,0,42,
scooby_state_402dc7|12|-2 0,0,0,0,0,0,0,0,0,0,0,0,42,0,0,42,
scooby_state_403083|48|5 35,0,0,0,0,0,0,0,0,0,0,0,7,0,0,42,
scooby_state_403039|5|-2 0,0,0,1,0,0,0,0,0,0,0,41,0,0,0,42,
scooby_state_40307e|50|3 42,0,0,0,0,0,0,0,0,0,0,0,0,0,0,42,
scooby_state_40307e|8|3 41,0,0,0,0,0,0,0,0,0,0,0,0,0,1,42,
scooby_state_40307e|38|3 42,0,0,0,0,0,0,0,0,0,0,0,0,0,0,42,
scooby_state_40307e|15|-3 42,0,0,0,0,0,0,0,0,0,0,0,0,0,0,42,
scooby_state_403012|23|-1 7,0,33,0,0,0,0,0,0,0,0,0,2,0,0,42,
scooby_state_40301c|44|-2 18,0,23,0,0,0,0,0,0,0,0,0,0,0,0,41,
scooby_state_40307e|36|-1 41,0,0,0,0,0,0,0,0,0,0,0,0,0,0,41,
scooby_state_403039|21|-2 0,0,0,4,0,0,0,0,0,0,0,37,0,0,0,41,
scooby_state_40307e|23|-3 41,0,0,0,0,0,0,0,0,0,0,0,0,0,0,41,
scooby_state_402dc7|14|-2 0,0,0,0,0,0,0,0,0,0,0,0,41,0,0,41,
scooby_state_40307e|10|-3 41,0,0,0,0,0,0,0,0,0,0,0,0,0,0,41,
scooby_state_40307e|35|3 41,0,0,0,0,0,0,0,0,0,0,0,0,0,0,41,
scooby_state_40307e|53|0 41,0,0,0,0,0,0,0,0,0,0,0,0,0,0,41,
scooby_state_40307e|56|0 41,0,0,0,0,0,0,0,0,0,0,0,0,0,0,41,
scooby_state_40307e|44|-3 41,0,0,0,0,0,0,0,0,0,0,0,0,0,0,41,
scooby_state_40307e|57|-3 41,0,0,0,0,0,0,0,0,0,0,0,0,0,0,41,
scooby_state_40307e|30|-1 41,0,0,0,0,0,0,0,0,0,0,0,0,0,0,41,
scooby_state_40307e|62|10 40,0,0,0,0,0,0,0,0,0,0,0,0,0,0,40,
scooby_state_403124|10|0 2,0,1,0,0,0,0,0,0,2,0,35,0,0,0,40,
scooby_state_40307e|11|-3 40,0,0,0,0,0,0,0,0,0,0,0,0,0,0,40,
scooby_state_40307e|6|-3 40,0,0,0,0,0,0,0,0,0,0,0,0,0,0,40,
scooby_state_40307e|56|-3 40,0,0,0,0,0,0,0,0,0,0,0,0,0,0,40,
scooby_state_40307e|41|3 40,0,0,0,0,0,0,0,0,0,0,0,0,0,0,40,
scooby_state_40307e|55|-3 39,0,0,0,0,0,0,0,0,0,0,0,0,0,0,39,
scooby_state_40307e|36|3 39,0,0,0,0,0,0,0,0,0,0,0,0,0,0,39,
scooby_state_403039|52|-2 0,0,0,1,0,0,0,0,0,0,0,38,0,0,0,39,
scooby_state_40307e|19|3 39,0,0,0,0,0,0,0,0,0,0,0,0,0,0,39,
scooby_state_40307e|39|-3 39,0,0,0,0,0,0,0,0,0,0,0,0,0,0,39,
scooby_state_40307e|47|-3 39,0,0,0,0,0,0,0,0,0,0,0,0,0,0,39,
scooby_state_403039|42|-2 0,0,0,1,0,0,0,0,0,0,0,38,0,0,0,39,
scooby_state_40307e|12|-3 39,0,0,0,0,0,0,0,0,0,0,0,0,0,0,39,
scooby_state_403039|17|-2 0,0,0,0,0,0,0,0,0,0,0,39,0,0,0,39,
scooby_state_402dc7|60|-2 0,0,0,0,0,0,0,0,0,0,0,0,39,0,0,39,
scooby_state_40301c|4|-2 5,0,34,0,0,0,0,0,0,0,0,0,0,0,0,39,
scooby_state_403124|39|0 0,2,0,0,0,0,1,0,1,0,0,35,0,0,0,39,
scooby_state_402dc7|3|-2 0,0,0,0,0,0,0,0,0,0,0,0,39,0,0,39,
scooby_state_40307e|54|10 39,0,0,0,0,0,0,0,0,0,0,0,0,0,0,39,
scooby_state_402dc7|37|-2 0,0,0,0,0,0,0,0,0,0,0,0,39,0,0,39,
scooby_state_403039|60|-2 1,0,0,1,0,0,0,1,0,0,0,36,0,0,0,39,
scooby_state_402dc7|52|-2 0,0,0,0,0,0,0,0,0,0,0,0,39,0,0,39,
scooby_state_402dc7|55|-2 0,0,0,0,0,0,0,0,0,0,0,0,39,0,0,39,
scooby_state_402dc7|9|-2 0,0,0,0,0,0,0,0,0,0,0,1,38,0,0,39,
scooby_state_402dc7|28|-2 0,0,0,0,0,0,0,0,0,0,0,0,39,0,0,39,
scooby_state_402dc7|44|-2 0,0,0,0,0,0,0,0,0,0,0,0,39,0,0,39,
scooby_state_40301c|58|-2 22,0,17,0,0,0,0,0,0,0,0,0,0,0,0,39,
scooby_state_40307e|28|-3 39,0,0,0,0,0,0,0,0,0,0,0,0,0,0,39,
scooby_state_40301c|51|-2 22,0,17,0,0,0,0,0,0,0,0,0,0,0,0,39,
scooby_state_40307e|47|0 38,0,0,0,0,0,0,0,0,0,0,0,0,0,0,38,
scooby_state_403012|23|0 7,0,31,0,0,0,0,0,0,0,0,0,0,0,0,38,
scooby_state_40307e|29|3 38,0,0,0,0,0,0,0,0,0,0,0,0,0,0,38,
scooby_state_403083|45|2 22,0,0,0,0,0,0,0,0,0,0,1,15,0,0,38,
scooby_state_40307e|17|3 38,0,0,0,0,0,0,0,0,0,0,0,0,0,0,38,
scooby_state_402dc7|13|-2 0,0,0,0,0,0,0,0,0,0,0,0,38,0,0,38,
scooby_state_40307e|61|0 38,0,0,0,0,0,0,0,0,0,0,0,0,0,0,38,
scooby_state_40307e|26|0 38,0,0,0,0,0,0,0,0,0,0,0,0,0,0,38,
scooby_state_403039|59|-2 0,1,0,0,0,0,0,0,0,0,0,37,0,0,0,38,
scooby_state_402dc7|35|-2 0,0,0,0,0,0,0,0,0,0,0,0,38,0,0,38,
scooby_state_403039|7|-2 0,0,0,0,0,0,0,0,0,0,0,38,0,0,0,38,
scooby_state_403012|9|-1 3,0,34,0,0,0,0,0,0,0,0,0,1,0,0,38,
scooby_state_40307e|18|-3 37,0,0,0,0,0,0,0,0,0,0,0,0,0,0,37,
scooby_state_403039|26|-2 1,1,1,0,0,0,0,0,0,0,0,34,0,0,0,37,
scooby_state_403039|8|-2 0,0,0,1,0,0,0,0,0,0,0,36,0,0,0,37,
scooby_state_40307e|23|3 37,0,0,0,0,0,0,0,0,0,0,0,0,0,0,37,
scooby_state_403039|41|0 0,0,0,0,0,0,0,0,0,0,0,36,1,0,0,37,
scooby_state_40307e|30|-3 37,0,0,0,0,0,0,0,0,0,0,0,0,0,0,37,
scooby_state_40307e|7|-3 37,0,0,0,0,0,0,0,0,0,0,0,0,0,0,37,
scooby_state_40307e|27|-3 37,0,0,0,0,0,0,0,0,0,0,0,0,0,0,37,
scooby_state_403039|32|-2 0,0,0,3,0,0,0,0,0,0,0,33,0,1,0,37,
[...]
scooby_state_40307e|20|-43 1,0,0,0,0,0,0,0,0,0,0,0,0,0,0,1,
scooby_state_40301c|38|-4 1,0,0,0,0,0,0,0,0,0,0,0,0,0,0,1,
scooby_state_40307e|9|-35 1,0,0,0,0,0,0,0,0,0,0,0,0,0,0,1,
scooby_state_403012|40|0 0,0,1,0,0,0,0,0,0,0,0,0,0,0,0,1,
scooby_state_40307e|24|13 1,0,0,0,0,0,0,0,0,0,0,0,0,0,0,1,
scooby_state_40307e|32|14 1,0,0,0,0,0,0,0,0,0,0,0,0,0,0,1,
scooby_state_40307e|34|28 1,0,0,0,0,0,0,0,0,0,0,0,0,0,0,1,
scooby_state_403083|36|-5 1,0,0,0,0,0,0,0,0,0,0,0,0,0,0,1,
scooby_state_40307e|36|13 1,0,0,0,0,0,0,0,0,0,0,0,0,0,0,1,
scooby_state_40307e|22|-32 1,0,0,0,0,0,0,0,0,0,0,0,0,0,0,1,
scooby_state_40307e|7|-20 1,0,0,0,0,0,0,0,0,0,0,0,0,0,0,1,
scooby_state_403039|38|0 0,0,0,0,0,0,0,0,0,0,0,1,0,0,0,1,
scooby_state_40307e|37|-24 1,0,0,0,0,0,0,0,0,0,0,0,0,0,0,1,
scooby_state_403083|40|-13 1,0,0,0,0,0,0,0,0,0,0,0,0,0,0,1,
scooby_state_40307e|0|-2 1,0,0,0,0,0,0,0,0,0,0,0,0,0,0,1,
scooby_state_40307e|14|-37 1,0,0,0,0,0,0,0,0,0,0,0,0,0,0,1,
scooby_state_40307e|50|-9 1,0,0,0,0,0,0,0,0,0,0,0,0,0,0,1,
scooby_state_40307e|40|35 1,0,0,0,0,0,0,0,0,0,0,0,0,0,0,1,
scooby_state_40307e|57|29 1,0,0,0,0,0,0,0,0,0,0,0,0,0,0,1,
scooby_state_40307e|61|59 1,0,0,0,0,0,0,0,0,0,0,0,0,0,0,1,
scooby_state_40307e|0|-33 1,0,0,0,0,0,0,0,0,0,0,0,0,0,0,1,
scooby_state_40307e|1|-11 1,0,0,0,0,0,0,0,0,0,0,0,0,0,0,1,
scooby_state_40307e|51|20 1,0,0,0,0,0,0,0,0,0,0,0,0,0,0,1,
scooby_state_403012|0|-6 0,0,1,0,0,0,0,0,0,0,0,0,0,0,0,1,
scooby_state_40307e|10|-30 1,0,0,0,0,0,0,0,0,0,0,0,0,0,0,1,
scooby_state_403012|63|45 0,0,1,0,0,0,0,0,0,0,0,0,0,0,0,1,
scooby_state_403083|38|-5 1,0,0,0,0,0,0,0,0,0,0,0,0,0,0,1,
scooby_state_403012|16|-9 0,0,1,0,0,0,0,0,0,0,0,0,0,0,0,1,
scooby_state_403012|24|-8 0,0,1,0,0,0,0,0,0,0,0,0,0,0,0,1,
scooby_state_40307e|50|31 1,0,0,0,0,0,0,0,0,0,0,0,0,0,0,1,
scooby_state_40307e|57|57 1,0,0,0,0,0,0,0,0,0,0,0,0,0,0,1,
scooby_state_403012|28|-13 0,0,1,0,0,0,0,0,0,0,0,0,0,0,0,1,
scooby_state_403083|53|-4 1,0,0,0,0,0,0,0,0,0,0,0,0,0,0,1,
scooby_state_40307e|62|59 1,0,0,0,0,0,0,0,0,0,0,0,0,0,0,1,
scooby_state_403083|25|-4 1,0,0,0,0,0,0,0,0,0,0,0,0,0,0,1,
scooby_state_403012|30|-4 1,0,0,0,0,0,0,0,0,0,0,0,0,0,0,1,
scooby_state_40307e|0|-62 1,0,0,0,0,0,0,0,0,0,0,0,0,0,0,1,
scooby_state_403012|22|-6 0,0,1,0,0,0,0,0,0,0,0,0,0,0,0,1,
scooby_state_40307e|55|21 1,0,0,0,0,0,0,0,0,0,0,0,0,0,0,1,
scooby_state_40307e|23|-21 1,0,0,0,0,0,0,0,0,0,0,0,0,0,0,1,
scooby_state_403083|58|-3 1,0,0,0,0,0,0,0,0,0,0,0,0,0,0,1,
scooby_state_40307e|22|-22 1,0,0,0,0,0,0,0,0,0,0,0,0,0,0,1,
scooby_state_40307e|9|-33 1,0,0,0,0,0,0,0,0,0,0,0,0,0,0,1,
scooby_state_403083|24|-1 1,0,0,0,0,0,0,0,0,0,0,0,0,0,0,1,
scooby_state_402dc7|12|0 0,0,0,0,0,0,0,0,0,0,0,0,1,0,0,1,
scooby_state_40307e|24|-37 1,0,0,0,0,0,0,0,0,0,0,0,0,0,0,1,
scooby_state_403039|35|0 0,0,0,0,0,0,0,0,0,0,0,0,1,0,0,1,
scooby_state_403012|63|8 0,0,1,0,0,0,0,0,0,0,0,0,0,0,0,1,
scooby_state_40307e|30|24 1,0,0,0,0,0,0,0,0,0,0,0,0,0,0,1,
scooby_state_40307e|32|32 1,0,0,0,0,0,0,0,0,0,0,0,0,0,0,1,
scooby_state_403039|48|0 0,0,0,0,0,0,0,0,0,0,0,1,0,0,0,1,
scooby_state_403083|3|-2 1,0,0,0,0,0,0,0,0,0,0,0,0,0,0,1,
scooby_state_40307e|56|55 1,0,0,0,0,0,0,0,0,0,0,0,0,0,0,1,
scooby_state_40307e|6|-46 1,0,0,0,0,0,0,0,0,0,0,0,0,0,0,1,
scooby_state_40301c|37|-3 0,0,1,0,0,0,0,0,0,0,0,0,0,0,0,1,
scooby_state_40307e|60|27 1,0,0,0,0,0,0,0,0,0,0,0,0,0,0,1,
scooby_state_40307e|62|58 1,0,0,0,0,0,0,0,0,0,0,0,0,0,0,1,
scooby_state_403012|3|-4 0,0,1,0,0,0,0,0,0,0,0,0,0,0,0,1,
scooby_state_403083|14|-13 1,0,0,0,0,0,0,0,0,0,0,0,0,0,0,1,
scooby_state_403083|28|-3 1,0,0,0,0,0,0,0,0,0,0,0,0,0,0,1,
scooby_state_40307e|32|11 1,0,0,0,0,0,0,0,0,0,0,0,0,0,0,1,
scooby_state_40307e|20|-41 1,0,0,0,0,0,0,0,0,0,0,0,0,0,0,1,
scooby_state_40307e|10|-12 1,0,0,0,0,0,0,0,0,0,0,0,0,0,0,1,
scooby_state_40307e|56|40 1,0,0,0,0,0,0,0,0,0,0,0,0,0,0,1,
scooby_state_40307e|0|-23 1,0,0,0,0,0,0,0,0,0,0,0,0,0,0,1,
scooby_state_403083|14|-9 1,0,0,0,0,0,0,0,0,0,0,0,0,0,0,1,
scooby_state_40307e|7|-42 1,0,0,0,0,0,0,0,0,0,0,0,0,0,0,1,
scooby_state_40307e|5|-46 1,0,0,0,0,0,0,0,0,0,0,0,0,0,0,1,
scooby_state_40307e|30|-25 1,0,0,0,0,0,0,0,0,0,0,0,0,0,0,1,
scooby_state_403039|24|-7 1,0,0,0,0,0,0,0,0,0,0,0,0,0,0,1,
scooby_state_40307e|5|-11 1,0,0,0,0,0,0,0,0,0,0,0,0,0,0,1,
scooby_state_40307e|12|-43 1,0,0,0,0,0,0,0,0,0,0,0,0,0,0,1,
scooby_state_40307e|36|-15 1,0,0,0,0,0,0,0,0,0,0,0,0,0,0,1,
scooby_state_403012|19|-3 0,0,1,0,0,0,0,0,0,0,0,0,0,0,0,1,
scooby_state_40307e|37|25 1,0,0,0,0,0,0,0,0,0,0,0,0,0,0,1,
scooby_state_40307e|49|47 1,0,0,0,0,0,0,0,0,0,0,0,0,0,0,1,
scooby_state_402dc3|41|-2 1,0,0,0,0,0,0,0,0,0,0,0,0,0,0,1,
scooby_state_403083|54|-9 1,0,0,0,0,0,0,0,0,0,0,0,0,0,0,1,
scooby_state_403012|5|-30 1,0,0,0,0,0,0,0,0,0,0,0,0,0,0,1,
scooby_state_41a829|32|1 1,0,0,0,0,0,0,0,0,0,0,0,0,0,0,1,
scooby_state_402e04|59|-2 0,0,0,1,0,0,0,0,0,0,0,0,0,0,0,1,
scooby_state_40307e|44|35 1,0,0,0,0,0,0,0,0,0,0,0,0,0,0,1,
scooby_state_40307e|30|-26 1,0,0,0,0,0,0,0,0,0,0,0,0,0,0,1,
scooby_state_40307e|61|44 1,0,0,0,0,0,0,0,0,0,0,0,0,0,0,1,
scooby_state_40307e|44|22 1,0,0,0,0,0,0,0,0,0,0,0,0,0,0,1,
scooby_state_40307e|51|38 1,0,0,0,0,0,0,0,0,0,0,0,0,0,0,1,
scooby_state_40307e|54|48 1,0,0,0,0,0,0,0,0,0,0,0,0,0,0,1,
scooby_state_403083|19|-9 1,0,0,0,0,0,0,0,0,0,0,0,0,0,0,1,
scooby_state_403083|0|-36 1,0,0,0,0,0,0,0,0,0,0,0,0,0,0,1,
scooby_state_40307e|30|-14 1,0,0,0,0,0,0,0,0,0,0,0,0,0,0,1,
scooby_state_40307e|57|50 1,0,0,0,0,0,0,0,0,0,0,0,0,0,0,1,
scooby_state_40307e|48|9 1,0,0,0,0,0,0,0,0,0,0,0,0,0,0,1,
scooby_state_403083|27|-4 1,0,0,0,0,0,0,0,0,0,0,0,0,0,0,1,
scooby_state_40307e|7|-28 1,0,0,0,0,0,0,0,0,0,0,0,0,0,0,1,
scooby_state_40307e|55|31 1,0,0,0,0,0,0,0,0,0,0,0,0,0,0,1,
scooby_state_40307e|17|-29 1,0,0,0,0,0,0,0,0,0,0,0,0,0,0,1,
scooby_state_403039|19|-1 0,0,0,1,0,0,0,0,0,0,0,0,0,0,0,1,
scooby_state_403039|61|6 0,0,0,0,0,0,0,0,0,0,0,1,0,0,0,1,
scooby_state_40307e|35|18 1,0,0,0,0,0,0,0,0,0,0,0,0,0,0,1,
scooby_state_403083|19|-1 1,0,0,0,0,0,0,0,0,0,0,0,0,0,0,1,
scooby_state_403012|1|-4 0,0,1,0,0,0,0,0,0,0,0,0,0,0,0,1,
scooby_state_40307e|58|-2 1,0,0,0,0,0,0,0,0,0,0,0,0,0,0,1,
scooby_state_40307e|57|9 1,0,0,0,0,0,0,0,0,0,0,0,0,0,0,1,
scooby_state_403012|35|-5 0,0,1,0,0,0,0,0,0,0,0,0,0,0,0,1,
scooby_state_40307e|24|-30 1,0,0,0,0,0,0,0,0,0,0,0,0,0,0,1,
scooby_state_403083|2|-2 1,0,0,0,0,0,0,0,0,0,0,0,0,0,0,1,
scooby_state_41a843|33|1 0,0,0,0,0,0,0,0,0,0,0,0,1,0,0,1,
scooby_state_41ad00|52|1 1,0,0,0,0,0,0,0,0,0,0,0,0,0,0,1,
scooby_state_403012|63|11 0,0,1,0,0,0,0,0,0,0,0,0,0,0,0,1,
scooby_state_41acc5|51|1 1,0,0,0,0,0,0,0,0,0,0,0,0,0,0,1,
scooby_state_41ac4f|49|10 1,0,0,0,0,0,0,0,0,0,0,0,0,0,0,1,
scooby_state_41a9c2|39|1 0,0,0,0,0,0,0,0,0,0,0,0,1,0,0,1,
scooby_state_41a9be|38|1 1,0,0,0,0,0,0,0,0,0,0,0,0,0,0,1,
scooby_state_41a944|37|1 1,0,0,0,0,0,0,0,0,0,0,0,0,0,0,1,
scooby_state_41a8e6|35|2 1,0,0,0,0,0,0,0,0,0,0,0,0,0,0,1,
scooby_state_40307e|10|-15 1,0,0,0,0,0,0,0,0,0,0,0,0,0,0,1,
scooby_state_41b2f8|11|0 1,0,0,0,0,0,0,0,0,0,0,0,0,0,0,1,
scooby_state_403124|36|0 0,0,0,0,0,0,0,0,0,0,0,1,0,0,0,1,
scooby_state_41a781|30|1 1,0,0,0,0,0,0,0,0,0,0,0,0,0,0,1,
scooby_state_41a770|29|0 1,0,0,0,0,0,0,0,0,0,0,0,0,0,0,1,
scooby_state_41d3c2|15|1 1,0,0,0,0,0,0,0,0,0,0,0,0,0,0,1,
scooby_state_40301c|58|0 0,0,1,0,0,0,0,0,0,0,0,0,0,0,0,1,
scooby_state_40307e|40|15 1,0,0,0,0,0,0,0,0,0,0,0,0,0,0,1,
scooby_state_41d385|14|1 1,0,0,0,0,0,0,0,0,0,0,0,0,0,0,1,
scooby_state_403140|5|0 1,0,0,0,0,0,0,0,0,0,0,0,0,0,0,1,
scooby_state_40307e|60|50 1,0,0,0,0,0,0,0,0,0,0,0,0,0,0,1,
scooby_state_403039|34|-5 0,0,0,0,0,0,0,0,0,0,0,1,0,0,0,1,
scooby_state_40307e|39|33 1,0,0,0,0,0,0,0,0,0,0,0,0,0,0,1,
scooby_state_40307e|17|-34 1,0,0,0,0,0,0,0,0,0,0,0,0,0,0,1,
scooby_state_402dc3|34|-2 1,0,0,0,0,0,0,0,0,0,0,0,0,0,0,1,
scooby_state_402d9f|61|0 0,0,0,0,0,0,0,0,0,0,0,0,0,1,0,1,
scooby_state_402d96|36|-1 1,0,0,0,0,0,0,0,0,0,0,0,0,0,0,1,
scooby_state_40307e|41|38 1,0,0,0,0,0,0,0,0,0,0,0,0,0,0,1,
scooby_state_403083|46|-17 1,0,0,0,0,0,0,0,0,0,0,0,0,0,0,1,
scooby_state_40307e|10|-49 1,0,0,0,0,0,0,0,0,0,0,0,0,0,0,1,
scooby_state_402d79|37|-1 0,0,0,0,0,0,0,0,0,0,0,1,0,0,0,1,
scooby_state_41d482|18|1 0,0,0,0,0,0,0,0,0,0,0,1,0,0,0,1,
scooby_state_40307e|58|55 1,0,0,0,0,0,0,0,0,0,0,0,0,0,0,1,
scooby_state_41d445|17|1 0,0,0,0,0,0,0,0,0,0,0,1,0,0,0,1,
scooby_state_403083|12|-6 1,0,0,0,0,0,0,0,0,0,0,0,0,0,0,1,
scooby_state_41a881|34|-18 1,0,0,0,0,0,0,0,0,0,0,0,0,0,0,1,
scooby_state_403039|28|-1 0,0,0,0,0,0,0,0,0,0,0,1,0,0,0,1,
scooby_state_40307e|10|-6 1,0,0,0,0,0,0,0,0,0,0,0,0,0,0,1,
scooby_state_40307e|63|53 1,0,0,0,0,0,0,0,0,0,0,0,0,0,0,1,
scooby_state_403083|40|-4 1,0,0,0,0,0,0,0,0,0,0,0,0,0,0,1,
scooby_state_40307e|47|2 1,0,0,0,0,0,0,0,0,0,0,0,0,0,0,1,
scooby_state_403039|42|0 0,0,0,0,0,0,0,0,0,0,0,1,0,0,0,1,
scooby_state_40307e|44|23 1,0,0,0,0,0,0,0,0,0,0,0,0,0,0,1,
scooby_state_403012|63|19 0,0,1,0,0,0,0,0,0,0,0,0,0,0,0,1,
scooby_state_40307e|23|23 1,0,0,0,0,0,0,0,0,0,0,0,0,0,0,1,
scooby_state_403083|25|13 1,0,0,0,0,0,0,0,0,0,0,0,0,0,0,1,
scooby_state_40307e|20|-17 1,0,0,0,0,0,0,0,0,0,0,0,0,0,0,1,
scooby_state_40301c|52|-4 0,0,1,0,0,0,0,0,0,0,0,0,0,0,0,1,
scooby_state_40307e|55|30 1,0,0,0,0,0,0,0,0,0,0,0,0,0,0,1,
scooby_state_40307e|61|18 1,0,0,0,0,0,0,0,0,0,0,0,0,0,0,1,
scooby_state_402d40|41|0 0,0,0,0,0,0,0,0,0,0,0,0,1,0,0,1,
scooby_state_40307e|11|-16 1,0,0,0,0,0,0,0,0,0,0,0,0,0,0,1,
scooby_state_40307e|13|-18 1,0,0,0,0,0,0,0,0,0,0,0,0,0,0,1,
scooby_state_40307e|7|-46 1,0,0,0,0,0,0,0,0,0,0,0,0,0,0,1,
scooby_state_40307e|5|-33 1,0,0,0,0,0,0,0,0,0,0,0,0,0,0,1,
scooby_state_403083|59|-2 1,0,0,0,0,0,0,0,0,0,0,0,0,0,0,1,
scooby_state_40307e|18|-35 1,0,0,0,0,0,0,0,0,0,0,0,0,0,0,1,
scooby_state_403083|9|3 1,0,0,0,0,0,0,0,0,0,0,0,0,0,0,1,
scooby_state_403039|51|0 0,0,0,0,0,0,0,0,0,0,0,1,0,0,0,1,
scooby_state_40307e|52|35 1,0,0,0,0,0,0,0,0,0,0,0,0,0,0,1,
scooby_state_40307e|29|-16 1,0,0,0,0,0,0,0,0,0,0,0,0,0,0,1,
scooby_state_403083|21|-3 1,0,0,0,0,0,0,0,0,0,0,0,0,0,0,1,
scooby_state_40307e|9|-29 1,0,0,0,0,0,0,0,0,0,0,0,0,0,0,1,
scooby_state_403039|41|1 1,0,0,0,0,0,0,0,0,0,0,0,0,0,0,1,
scooby_state_40307e|19|9 1,0,0,0,0,0,0,0,0,0,0,0,0,0,0,1,
scooby_state_40307e|58|24 1,0,0,0,0,0,0,0,0,0,0,0,0,0,0,1,
scooby_state_40307e|3|-57 1,0,0,0,0,0,0,0,0,0,0,0,0,0,0,1,
scooby_state_40307e|22|-16 1,0,0,0,0,0,0,0,0,0,0,0,0,0,0,1,
scooby_state_403083|21|-4 1,0,0,0,0,0,0,0,0,0,0,0,0,0,0,1,
scooby_state_403083|53|-2 1,0,0,0,0,0,0,0,0,0,0,0,0,0,0,1,
scooby_state_403083|11|11 1,0,0,0,0,0,0,0,0,0,0,0,0,0,0,1,
scooby_state_403083|0|-24 1,0,0,0,0,0,0,0,0,0,0,0,0,0,0,1,
scooby_state_403083|8|-9 1,0,0,0,0,0,0,0,0,0,0,0,0,0,0,1,
scooby_state_40307e|48|-13 1,0,0,0,0,0,0,0,0,0,0,0,0,0,0,1,
scooby_state_403012|46|-4 0,0,1,0,0,0,0,0,0,0,0,0,0,0,0,1,
scooby_state_40307e|52|9 1,0,0,0,0,0,0,0,0,0,0,0,0,0,0,1,
scooby_state_403083|28|2 1,0,0,0,0,0,0,0,0,0,0,0,0,0,0,1,
scooby_state_40307e|34|-26 1,0,0,0,0,0,0,0,0,0,0,0,0,0,0,1,
scooby_state_40307e|57|41 1,0,0,0,0,0,0,0,0,0,0,0,0,0,0,1,
scooby_state_40307e|9|-37 1,0,0,0,0,0,0,0,0,0,0,0,0,0,0,1,
scooby_state_40301c|13|-4 1,0,0,0,0,0,0,0,0,0,0,0,0,0,0,1,
scooby_state_40307e|24|-32 1,0,0,0,0,0,0,0,0,0,0,0,0,0,0,1,
scooby_state_41a7c2|31|1 1,0,0,0,0,0,0,0,0,0,0,0,0,0,0,1,
scooby_state_402dc7|4|0 0,0,0,0,0,0,0,0,0,0,0,0,1,0,0,1,
scooby_state_40307e|36|-17 1,0,0,0,0,0,0,0,0,0,0,0,0,0,0,1,
scooby_state_403083|44|2 1,0,0,0,0,0,0,0,0,0,0,0,0,0,0,1,
scooby_state_40307e|58|41 1,0,0,0,0,0,0,0,0,0,0,0,0,0,0,1,
scooby_state_403012|28|-7 1,0,0,0,0,0,0,0,0,0,0,0,0,0,0,1,
scooby_state_40307e|41|32 1,0,0,0,0,0,0,0,0,0,0,0,0,0,0,1,
scooby_state_40307e|17|-31 1,0,0,0,0,0,0,0,0,0,0,0,0,0,0,1,
scooby_state_40307e|40|20 1,0,0,0,0,0,0,0,0,0,0,0,0,0,0,1,
scooby_state_40307e|51|36 1,0,0,0,0,0,0,0,0,0,0,0,0,0,0,1,
scooby_state_40307e|52|36 1,0,0,0,0,0,0,0,0,0,0,0,0,0,0,1,
scooby_state_40307e|4|-55 1,0,0,0,0,0,0,0,0,0,0,0,0,0,0,1,
scooby_state_403083|43|-4 1,0,0,0,0,0,0,0,0,0,0,0,0,0,0,1,
scooby_state_40307e|48|-15 1,0,0,0,0,0,0,0,0,0,0,0,0,0,0,1,
scooby_state_40307e|8|-51 1,0,0,0,0,0,0,0,0,0,0,0,0,0,0,1,
scooby_state_40307e|1|-43 1,0,0,0,0,0,0,0,0,0,0,0,0,0,0,1,
scooby_state_40301c|13|0 0,0,1,0,0,0,0,0,0,0,0,0,0,0,0,1,
scooby_state_40307e|13|-33 1,0,0,0,0,0,0,0,0,0,0,0,0,0,0,1,
scooby_state_40307e|14|9 1,0,0,0,0,0,0,0,0,0,0,0,0,0,0,1,
scooby_state_40307e|39|-23 1,0,0,0,0,0,0,0,0,0,0,0,0,0,0,1,
scooby_state_40307e|10|-44 1,0,0,0,0,0,0,0,0,0,0,0,0,0,0,1,
scooby_state_40307e|10|-8 1,0,0,0,0,0,0,0,0,0,0,0,0,0,0,1,
scooby_state_403083|24|-2 1,0,0,0,0,0,0,0,0,0,0,0,0,0,0,1,
scooby_state_40307e|27|-25 1,0,0,0,0,0,0,0,0,0,0,0,0,0,0,1,
scooby_state_403083|3|-16 1,0,0,0,0,0,0,0,0,0,0,0,0,0,0,1,
scooby_state_403083|18|-4 1,0,0,0,0,0,0,0,0,0,0,0,0,0,0,1,
scooby_state_403083|25|-2 1,0,0,0,0,0,0,0,0,0,0,0,0,0,0,1,
scooby_state_40307e|42|22 1,0,0,0,0,0,0,0,0,0,0,0,0,0,0,1,
scooby_state_403012|4|-4 1,0,0,0,0,0,0,0,0,0,0,0,0,0,0,1,
scooby_state_403012|53|0 0,0,1,0,0,0,0,0,0,0,0,0,0,0,0,1,

scooby_action_0_deg_dist 0,573,0,0,0,0,0,0,0,0,0,0,0,0,0,0,
scooby_action_-6_deg_dist 0,104,0,0,0,0,0,0,0,0,0,0,0,0,0,0,
scooby_action_4_deg_dist 0,5751,1289,0,1151,0,593,0,0,0,0,0,0,0,0,0,
scooby_action_1_deg_dist 0,74739,43762,0,68420,0,49698,0,0,0,0,0,0,0,0,0,
scooby_action_30_deg_dist 0,199,6,0,5,0,11,0,0,0,0,0,0,0,0,0,
scooby_action_5_deg_dist 0,381,13,0,25,0,51,0,0,0,0,0,0,0,0,0,
scooby_action_3_deg_dist 0,169,14,0,21,0,30,0,0,0,0,0,0,0,0,0,
scooby_action_32_deg_dist 0,106,0,0,0,0,0,0,0,0,0,0,0,0,0,0,
scooby_action_10_deg_dist 0,198,4,0,11,0,28,0,0,0,0,0,0,0,0,0,
scooby_action_11_deg_dist 0,182,11,0,22,0,26,0,0,0,0,0,0,0,0,0,
scooby_action_12_deg_dist 0,168,8,0,17,0,23,0,0,0,0,0,0,0,0,0,
scooby_action_23_deg_dist 0,158,7,0,13,0,12,0,0,0,0,0,0,0,0,0,
scooby_action_-1_deg_dist 0,8850,1890,0,4738,0,49599,0,0,0,0,0,0,0,0,0,
scooby_action_22_deg_dist 0,204,6,0,13,0,16,0,0,0,0,0,0,0,0,0,
scooby_action_-3_deg_dist 0,30001,18422,0,45770,0,126395,0,0,0,0,0,0,0,0,0,

scooby_track_called 533903
scooby_track_same_address 121678
scooby_track_evict 411969

scooby_reward_demand_called 533903
scooby_reward_demand_pt_not_found 223420
scooby_reward_demand_pt_found 310483
scooby_reward_demand_pt_found_total 310483
scooby_reward_demand_has_reward 23304
scooby_reward_train_called 109687
scooby_reward_assign_reward_called 412144
scooby_reward_no_pref 570
scooby_reward_incorrect 109117
scooby_reward_correct_untimely 161468
scooby_reward_correct_timely 125711
scooby_reward_out_of_bounds 15278
scooby_reward_tracker_hit 0

scooby_reward_none_low_bw 570
scooby_reward_none_high_bw 0
scooby_reward_incorrect_low_bw 109117
scooby_reward_incorrect_high_bw 0
scooby_reward_correct_untimely_low_bw 161468
scooby_reward_correct_untimely_high_bw 0
scooby_reward_correct_timely_low_bw 125711
scooby_reward_correct_timely_high_bw 0
scooby_reward_out_of_bounds_low_bw 15278
scooby_reward_out_of_bounds_high_bw 0
scooby_reward_tracker_hit_low_bw 0
scooby_reward_tracker_hit_high_bw 0

scooby_reward_1 0,32034,25477,63415,2930,0,
scooby_reward_3 0,142,5,1,12,0,
scooby_reward_4 0,2619,1660,258,424,0,
scooby_reward_5 0,256,50,15,25,0,
scooby_reward_10 0,119,1,2,53,0,
scooby_reward_11 0,135,0,4,40,0,
scooby_reward_12 0,139,0,7,34,0,
scooby_reward_22 0,89,0,0,117,0,
scooby_reward_23 0,82,0,1,71,0,
scooby_reward_30 0,71,0,1,106,0,
scooby_reward_32 0,18,0,0,72,0,
scooby_reward_-1 0,2334,54161,4028,998,0,
scooby_reward_-3 0,71014,80111,57963,10392,0,
scooby_reward_-6 0,65,3,16,4,0,
scooby_reward_0 570,0,0,0,0,0,

scooby_train_called 411968
scooby_train_compute_reward 109687

scooby_register_fill_called 554399
scooby_register_fill_set 159752
scooby_register_fill_set_total 159752

scooby_register_prefetch_hit_called 902613
scooby_register_prefetch_hit_set 266847
scooby_register_prefetch_hit_set_total 266847

scooby_pref_issue_scooby 1485976

learning_engine_featurewise.action.called 533903
learning_engine_featurewise.action.explore 987
learning_engine_featurewise.action.exploit 532916
learning_engine_featurewise.action.fallback 0
learning_engine_featurewise.action.dyn_fallback_saved_bw 0
learning_engine_featurewise.action.dyn_fallback_saved_bw_acc 0
learning_engine_featurewise.action.index_1_explored 53
learning_engine_featurewise.action.index_1_exploited 236566
learning_engine_featurewise.action.index_3_explored 68
learning_engine_featurewise.action.index_3_exploited 166
learning_engine_featurewise.action.index_4_explored 62
learning_engine_featurewise.action.index_4_exploited 8722
learning_engine_featurewise.action.index_5_explored 63
learning_engine_featurewise.action.index_5_exploited 407
learning_engine_featurewise.action.index_10_explored 75
learning_engine_featurewise.action.index_10_exploited 166
learning_engine_featurewise.action.index_11_explored 65
learning_engine_featurewise.action.index_11_exploited 176
learning_engine_featurewise.action.index_12_explored 68
learning_engine_featurewise.action.index_12_exploited 148
learning_engine_featurewise.action.index_22_explored 69
learning_engine_featurewise.action.index_22_exploited 170
learning_engine_featurewise.action.index_23_explored 64
learning_engine_featurewise.action.index_23_exploited 126
learning_engine_featurewise.action.index_30_explored 79
learning_engine_featurewise.action.index_30_exploited 142
learning_engine_featurewise.action.index_32_explored 52
learning_engine_featurewise.action.index_32_exploited 54
learning_engine_featurewise.action.index_-1_explored 80
learning_engine_featurewise.action.index_-1_exploited 64997
learning_engine_featurewise.action.index_-3_explored 66
learning_engine_featurewise.action.index_-3_exploited 220522
learning_engine_featurewise.action.index_-6_explored 54
learning_engine_featurewise.action.index_-6_exploited 50
learning_engine_featurewise.action.index_0_explored 69
learning_engine_featurewise.action.index_0_exploited 504
learning_engine_featurewise.learn.called 411968
learning_engine_featurewise.learn.su_skip_PC 0
learning_engine_featurewise.learn.su_skip_PC_Delta 0

learning_engine_featurewise.q_value_histogram.bucket_0 0
learning_engine_featurewise.q_value_histogram.bucket_1 0
learning_engine_featurewise.q_value_histogram.bucket_2 0
learning_engine_featurewise.q_value_histogram.bucket_3 892
learning_engine_featurewise.q_value_histogram.bucket_4 20055
learning_engine_featurewise.q_value_histogram.bucket_5 18447
learning_engine_featurewise.q_value_histogram.bucket_6 493522
learning_engine_featurewise.q_value_histogram.bucket_7 0

learning_engine_featurewise.consensus.total 532916
learning_engine_featurewise.consensus.feature_align_PC 525963
learning_engine_featurewise.consensus.feature_align_PC_ratio 0.99
learning_engine_featurewise.consensus.feature_align_PC_Delta 510418
learning_engine_featurewise.consensus.feature_align_PC_Delta_ratio 0.96
learning_engine_featurewise.consensus.feature_align_all 503465
learning_engine_featurewise.consensus.feature_align_all_ratio 0.94

learning_engine_featurewise.feature_PC_min_weight 1000000.00000000
learning_engine_featurewise.feature_PC_max_weight 0.00000000
learning_engine_featurewise.feature_PC_Delta_min_weight 1000000.00000000
learning_engine_featurewise.feature_PC_Delta_max_weight 0.00000000
unique_pcs 75
unique_pages 3541
unique_trigger_pcs 34
total_bitmaps_seen 0
unique_bitmaps_seen 0

scooby_bw_epochs 446872
scooby_bw_level_0 446872
scooby_bw_level_1 0
scooby_bw_level_2 0
scooby_bw_level_3 0

scooby_ipc_epochs 0
scooby_ipc_level_0 0
scooby_ipc_level_1 0
scooby_ipc_level_2 0
scooby_ipc_level_3 0

scooby_cache_acc_epochs 111537
scooby_cache_acc_level_0 43482
scooby_cache_acc_level_1 10271
scooby_cache_acc_level_2 7558
scooby_cache_acc_level_3 6298
scooby_cache_acc_level_4 8242
scooby_cache_acc_level_5 13397
scooby_cache_acc_level_6 8223
scooby_cache_acc_level_7 4903
scooby_cache_acc_level_8 2855
scooby_cache_acc_level_9 6308

Channel_0_RQ_row_buffer_hit 374140
Channel_0_RQ_row_buffer_miss 138590
Channel_0_WQ_row_buffer_hit 1337
Channel_0_WQ_row_buffer_miss 36707
Channel_0_WQ_full 0
Channel_0_dbus_congested 1

avg_congested_cycle 1

DRAM_bw_pochs 446872
DRAM_bw_level_0 446872
DRAM_bw_level_1 0
DRAM_bw_level_2 0
DRAM_bw_level_3 0
