*************************************************
   ChampSim Multicore Out-of-Order Simulator
   Last compiled: Dec  9 2023 10:40:12
*************************************************
parsing config file: /home/gio/Prefetcher-Research-Project/config/pythia.ini

trace_0 /home/gio/Prefetcher-Research-Project/traces/638.imagick_s-10316B.champsimtrace.xz
adding L2C_PREFETCHER: Scooby
Initialize SHIP state
warmup_instructions 1000000
simulation_instructions 5000000
champsim_seed 317
measure_ipc 0
measure_ipc_epoch 1000
measure_dram_bw 1
measure_dram_bw_epoch 256
measure_cache_acc 1
measure_cache_acc_epoch 1024
l1d_perfect 0
l2c_perfect 0
llc_perfect 0
l1d_semi_perfect 0
l2c_semi_perfect 0
llc_semi_perfect 0
semi_perfect_cache_page_buffer_size 64

num_cpus 1
cpu_freq 550
dram_io_freq 2400
page_size 4096
block_size 64
max_read_per_cycle 8
max_fill_per_cycle 1
dram_channels 1
log2_dram_channels 0
dram_ranks 1
dram_banks 8
dram_rows 65536
dram_columns 128
dram_row_size 8
dram_size 4096
dram_pages 1048576

fetch_width 2
decode_width 2
exec_width 2
lq_width 1
sq_width 1
retire_width 5
scheduler_size 1
branch_mispredict_penalty 1
rob_size 256
lq_size 72
sq_size 56
num_instr_destinations_sparc 4
num_instr_destinations 2
num_instr_sources 4

itlb_set 1024
itlb_way 1024
itlb_rq_size 16
itlb_wq_size 16
itlb_pq_size 0
itlb_mshr_size 8
itlb_latency 0

dtlb_set 1024
dtlb_way 1024
dtlb_rq_size 32
dtlb_wq_size 32
dtlb_pq_size 0
dtlb_mshr_size 8
dtlb_latency 0

stlb_set 1024
stlb_way 1024
stlb_rq_size 32
stlb_wq_size 32
stlb_pq_size 0
stlb_mshr_size 16
stlb_latency 0

l1i_size 32
l1i_set 64
l1i_way 8
l1i_rq_size 64
l1i_wq_size 64
l1i_pq_size 32
l1i_mshr_size 8
l1i_latency 4

l1d_size 8
l1d_set 16
l1d_way 8
l1d_rq_size 64
l1d_wq_size 64
l1d_pq_size 8
l1d_mshr_size 16
l1d_latency 5

l2c_size 32
l2c_set 64
l2c_way 8
l2c_rq_size 32
l2c_wq_size 32
l2c_pq_size 16
l2c_mshr_size 32
l2c_latency 10

llc_size 2048
llc_set 2048
llc_way 16
llc_rq_size 32
llc_wq_size 32
llc_pq_size 32
llc_mshr_size 64
llc_latency 20

dram_channel_width 8
dram_wq_size 64
dram_rq_size 64
tRP 15
tRCD 15
tCAS 12.5
dram_dbus_turn_around_time 4
dram_write_high_wm 56
dram_write_low_wm 48
min_dram_writes_per_switch 16
dram_mtps 2400
dram_dbus_return_time 1

scooby_alpha 0.0065088
scooby_gamma 0.556301
scooby_epsilon 0.00182284
scooby_state_num_bits 10
scooby_max_states 1024
scooby_seed 200
scooby_policy EGreedy
scooby_learning_type SARSA
scooby_actions 1,3,4,5,10,11,12,22,23,30,32,-1,-3,-6,0,
scooby_max_actions 15
scooby_pt_size 256
scooby_st_size 64
scooby_max_pcs 5
scooby_max_offsets 5
scooby_max_deltas 5
scooby_reward_none -4
scooby_reward_incorrect -8
scooby_reward_correct_untimely 12
scooby_reward_correct_timely 20
scooby_brain_zero_init 0
scooby_enable_reward_all 0
scooby_enable_track_multiple 0
scooby_enable_reward_out_of_bounds 1
scooby_reward_out_of_bounds -12
scooby_state_type 1
scooby_state_hash_type 11
scooby_access_debug 0
scooby_print_access_debug 0
scooby_print_access_debug_pc deadbeef
scooby_print_access_debug_pc_count 0
scooby_print_trace 0
scooby_enable_state_action_stats 1
scooby_enable_reward_tracker_hit 0
scooby_reward_tracker_hit -2
scooby_enable_featurewise_engine 1
scooby_pref_degree 1
scooby_enable_dyn_degree 1
scooby_max_to_avg_q_thresholds 0.5,1,2,
scooby_dyn_degrees 1,2,4,4,
scooby_multi_deg_select_type 2
scooby_last_pref_offset_conf_thresholds 1,3,8,
scooby_dyn_degrees_type2 1,2,4,6,
scooby_action_tracker_size 2
scooby_high_bw_thresh 4
scooby_enable_hbw_reward 1
scooby_reward_hbw_correct_timely 20
scooby_reward_hbw_correct_untimely 12
scooby_reward_hbw_incorrect -14
scooby_reward_hbw_none -2
scooby_reward_hbw_out_of_bounds -12
scooby_reward_hbw_tracker_hit -2
scooby_last_pref_offset_conf_thresholds_hbw 1,3,8,
scooby_dyn_degrees_type2_hbw 1,2,4,6,

le_enable_trace 0
le_trace_interval 0
le_trace_file_name 
le_trace_state 0
le_enable_score_plot 0
le_plot_file_name 
le_plot_actions 
le_enable_action_trace 0
le_action_trace_interval 0
le_action_trace_name 
le_enable_action_plot 0

le_featurewise_active_features PC, PC_Delta
le_featurewise_num_tilings 3,3,
le_featurewise_num_tiles 128,128,
le_featurewise_hash_types 2,2,
le_featurewise_enable_tiling_offset 1,1,
le_featurewise_max_q_thresh 0.5
le_featurewise_enable_action_fallback 1
le_featurewise_feature_weights 1,1,
le_featurewise_enable_dynamic_weight 0
le_featurewise_weight_gradient 0.001
le_featurewise_disable_adjust_weight_all_features_align 1
le_featurewise_selective_update 0
le_featurewise_pooling_type 2
le_featurewise_enable_dyn_action_fallback 1
le_featurewise_bw_acc_check_level 1
le_featurewise_acc_thresh 2
le_featurewise_enable_trace 0
le_featurewise_trace_feature_type 0
le_featurewise_trace_feature 
le_featurewise_trace_interval 0
le_featurewise_trace_record_count 0
le_featurewise_trace_file_name 
le_featurewise_enable_score_plot 0
le_featurewise_plot_actions 
le_featurewise_plot_file_name 


Heartbeat CPU  0 instructions:    1000000 cycles:    1186014 heartbeat IPC: 0.84316 cumulative IPC: 0.84316 (Simulation time: 0 hr 0 min 4 sec) 

Warmup complete CPU  0 instructions:    1000001 cycles:    1186015 (Simulation time: 0 hr 0 min 4 sec) 

Heartbeat CPU  0 instructions:    2000000 cycles:   10198374 heartbeat IPC: 0.11096 cumulative IPC: 0.11096 (Simulation time: 0 hr 2 min 42 sec) 
Heartbeat CPU  0 instructions:    3000000 cycles:   19211463 heartbeat IPC: 0.11095 cumulative IPC: 0.11095 (Simulation time: 0 hr 2 min 52 sec) 
Heartbeat CPU  0 instructions:    4000000 cycles:   28224267 heartbeat IPC: 0.11095 cumulative IPC: 0.11095 (Simulation time: 0 hr 2 min 56 sec) 
Heartbeat CPU  0 instructions:    5000000 cycles:   37237488 heartbeat IPC: 0.11095 cumulative IPC: 0.11095 (Simulation time: 0 hr 3 min 1 sec) 
Heartbeat CPU  0 instructions:    6000000 cycles:   46250519 heartbeat IPC: 0.11095 cumulative IPC: 0.11095 (Simulation time: 0 hr 3 min 6 sec) 
Finished CPU 0 instructions: 5000000 cycles: 45064512 cumulative IPC: 0.11095 (Simulation time: 0 hr 3 min 6 sec) 

ChampSim completed all CPUs

[ROI Statistics]
Core_0_instructions 5000000
Core_0_cycles 45064512
Core_0_IPC 0.11095

Core_0_branch_prediction_accuracy 99.69799
Core_0_branch_MPKI 0.31260
Core_0_average_ROB_occupancy_at_mispredict 253.76072

Core_0_L1D_total_access 863255
Core_0_L1D_total_hit 818747
Core_0_L1D_total_miss 44508
Core_0_L1D_loads 863003
Core_0_L1D_load_hit 818525
Core_0_L1D_load_miss 44478
Core_0_L1D_RFOs 252
Core_0_L1D_RFO_hit 222
Core_0_L1D_RFO_miss 30
Core_0_L1D_prefetches 0
Core_0_L1D_prefetch_hit 0
Core_0_L1D_prefetch_miss 0
Core_0_L1D_writebacks 0
Core_0_L1D_writeback_hit 0
Core_0_L1D_writeback_miss 0
Core_0_L1D_prefetch_requested 0
Core_0_L1D_prefetch_dropped 0
Core_0_L1D_prefetch_issued 0
Core_0_L1D_prefetch_filled 0
Core_0_L1D_prefetch_useful 0
Core_0_L1D_prefetch_useless 0
Core_0_L1D_prefetch_late 0
Core_0_L1D_average_miss_latency 16.61625

Core_0_L1D_rq_access 863003
Core_0_L1D_rq_forward 0
Core_0_L1D_rq_merged 0
Core_0_L1D_rq_to_cache 863003
Core_0_L1D_rq_full 0

Core_0_L1D_wq_access 252
Core_0_L1D_wq_forward 0
Core_0_L1D_wq_merged 0
Core_0_L1D_wq_to_cache 252
Core_0_L1D_wq_full 0

Core_0_L1D_pq_access 0
Core_0_L1D_pq_forward 0
Core_0_L1D_pq_merged 0
Core_0_L1D_pq_to_cache 0
Core_0_L1D_pq_full 0

Core_0_L1D_acc_epochs 45167
Core_0_L1D_acc_level_0 45167
Core_0_L1D_acc_level_1 0
Core_0_L1D_acc_level_2 0
Core_0_L1D_acc_level_3 0
Core_0_L1D_acc_level_4 0
Core_0_L1D_acc_level_5 0
Core_0_L1D_acc_level_6 0
Core_0_L1D_acc_level_7 0
Core_0_L1D_acc_level_8 0
Core_0_L1D_acc_level_9 0

Core_0_L1I_total_access 4643828
Core_0_L1I_total_hit 4643828
Core_0_L1I_total_miss 0
Core_0_L1I_loads 4643828
Core_0_L1I_load_hit 4643828
Core_0_L1I_load_miss 0
Core_0_L1I_RFOs 0
Core_0_L1I_RFO_hit 0
Core_0_L1I_RFO_miss 0
Core_0_L1I_prefetches 0
Core_0_L1I_prefetch_hit 0
Core_0_L1I_prefetch_miss 0
Core_0_L1I_writebacks 0
Core_0_L1I_writeback_hit 0
Core_0_L1I_writeback_miss 0
Core_0_L1I_prefetch_requested 0
Core_0_L1I_prefetch_dropped 0
Core_0_L1I_prefetch_issued 0
Core_0_L1I_prefetch_filled 0
Core_0_L1I_prefetch_useful 0
Core_0_L1I_prefetch_useless 0
Core_0_L1I_prefetch_late 0
Core_0_L1I_average_miss_latency -nan

Core_0_L1I_rq_access 5000001
Core_0_L1I_rq_forward 0
Core_0_L1I_rq_merged 356173
Core_0_L1I_rq_to_cache 4643828
Core_0_L1I_rq_full 0

Core_0_L1I_wq_access 0
Core_0_L1I_wq_forward 0
Core_0_L1I_wq_merged 0
Core_0_L1I_wq_to_cache 0
Core_0_L1I_wq_full 0

Core_0_L1I_pq_access 0
Core_0_L1I_pq_forward 0
Core_0_L1I_pq_merged 0
Core_0_L1I_pq_to_cache 0
Core_0_L1I_pq_full 0

Core_0_L1I_acc_epochs 45167
Core_0_L1I_acc_level_0 45167
Core_0_L1I_acc_level_1 0
Core_0_L1I_acc_level_2 0
Core_0_L1I_acc_level_3 0
Core_0_L1I_acc_level_4 0
Core_0_L1I_acc_level_5 0
Core_0_L1I_acc_level_6 0
Core_0_L1I_acc_level_7 0
Core_0_L1I_acc_level_8 0
Core_0_L1I_acc_level_9 0

Core_0_L2C_total_access 231287
Core_0_L2C_total_hit 178688
Core_0_L2C_total_miss 52599
Core_0_L2C_loads 44478
Core_0_L2C_load_hit 42117
Core_0_L2C_load_miss 2361
Core_0_L2C_RFOs 30
Core_0_L2C_RFO_hit 1
Core_0_L2C_RFO_miss 29
Core_0_L2C_prefetches 186707
Core_0_L2C_prefetch_hit 136498
Core_0_L2C_prefetch_miss 50209
Core_0_L2C_writebacks 72
Core_0_L2C_writeback_hit 72
Core_0_L2C_writeback_miss 0
Core_0_L2C_prefetch_requested 221111
Core_0_L2C_prefetch_dropped 0
Core_0_L2C_prefetch_issued 221111
Core_0_L2C_prefetch_filled 59045
Core_0_L2C_prefetch_useful 49310
Core_0_L2C_prefetch_useless 9644
Core_0_L2C_prefetch_late 1
Core_0_L2C_average_miss_latency 30.18076

Core_0_L2C_rq_access 44508
Core_0_L2C_rq_forward 0
Core_0_L2C_rq_merged 0
Core_0_L2C_rq_to_cache 44508
Core_0_L2C_rq_full 0

Core_0_L2C_wq_access 72
Core_0_L2C_wq_forward 0
Core_0_L2C_wq_merged 0
Core_0_L2C_wq_to_cache 72
Core_0_L2C_wq_full 0

Core_0_L2C_pq_access 221111
Core_0_L2C_pq_forward 0
Core_0_L2C_pq_merged 23
Core_0_L2C_pq_to_cache 221088
Core_0_L2C_pq_full 0

Core_0_L2C_acc_epochs 45167
Core_0_L2C_acc_level_0 454
Core_0_L2C_acc_level_1 1068
Core_0_L2C_acc_level_2 3696
Core_0_L2C_acc_level_3 7208
Core_0_L2C_acc_level_4 3892
Core_0_L2C_acc_level_5 2551
Core_0_L2C_acc_level_6 8275
Core_0_L2C_acc_level_7 2762
Core_0_L2C_acc_level_8 3891
Core_0_L2C_acc_level_9 11370

Core_0_LLC_total_access 52669
Core_0_LLC_total_hit 52439
Core_0_LLC_total_miss 230
Core_0_LLC_loads 2361
Core_0_LLC_load_hit 2357
Core_0_LLC_load_miss 4
Core_0_LLC_RFOs 29
Core_0_LLC_RFO_hit 27
Core_0_LLC_RFO_miss 2
Core_0_LLC_prefetches 50209
Core_0_LLC_prefetch_hit 49985
Core_0_LLC_prefetch_miss 224
Core_0_LLC_writebacks 70
Core_0_LLC_writeback_hit 70
Core_0_LLC_writeback_miss 0
Core_0_LLC_prefetch_requested 0
Core_0_LLC_prefetch_dropped 0
Core_0_LLC_prefetch_issued 0
Core_0_LLC_prefetch_filled 2638
Core_0_LLC_prefetch_useful 229
Core_0_LLC_prefetch_useless 0
Core_0_LLC_prefetch_late 0
Core_0_LLC_average_miss_latency 40.95652

Core_0_LLC_rq_access 2390
Core_0_LLC_rq_forward 0
Core_0_LLC_rq_merged 0
Core_0_LLC_rq_to_cache 2390
Core_0_LLC_rq_full 0

Core_0_LLC_wq_access 70
Core_0_LLC_wq_forward 0
Core_0_LLC_wq_merged 0
Core_0_LLC_wq_to_cache 70
Core_0_LLC_wq_full 0

Core_0_LLC_pq_access 59046
Core_0_LLC_pq_forward 0
Core_0_LLC_pq_merged 0
Core_0_LLC_pq_to_cache 59046
Core_0_LLC_pq_full 0

Core_0_LLC_acc_epochs 45167
Core_0_LLC_acc_level_0 45160
Core_0_LLC_acc_level_1 3
Core_0_LLC_acc_level_2 3
Core_0_LLC_acc_level_3 0
Core_0_LLC_acc_level_4 0
Core_0_LLC_acc_level_5 1
Core_0_LLC_acc_level_6 0
Core_0_LLC_acc_level_7 0
Core_0_LLC_acc_level_8 0
Core_0_LLC_acc_level_9 0

Core_0_major_page_fault 0
Core_0_minor_page_fault 172

scooby_st_lookup 53402
scooby_st_hit 50597
scooby_st_evict 2741
scooby_st_insert 2805
scooby_st_streaming 0

scooby_predict_called 53402
scooby_predict_out_of_bounds 1102
scooby_predict_action_1 27163
scooby_predict_issue_action_1 27149
scooby_predict_hit_action_1 14
scooby_predict_out_of_bounds_action_1 436
scooby_predict_action_3 152
scooby_predict_issue_action_3 147
scooby_predict_hit_action_3 5
scooby_predict_out_of_bounds_action_3 6
scooby_predict_action_4 127
scooby_predict_issue_action_4 124
scooby_predict_hit_action_4 3
scooby_predict_out_of_bounds_action_4 9
scooby_predict_action_5 125
scooby_predict_issue_action_5 120
scooby_predict_hit_action_5 5
scooby_predict_out_of_bounds_action_5 11
scooby_predict_action_10 121
scooby_predict_issue_action_10 112
scooby_predict_hit_action_10 9
scooby_predict_out_of_bounds_action_10 22
scooby_predict_action_11 112
scooby_predict_issue_action_11 108
scooby_predict_hit_action_11 4
scooby_predict_out_of_bounds_action_11 26
scooby_predict_action_12 108
scooby_predict_issue_action_12 106
scooby_predict_hit_action_12 2
scooby_predict_out_of_bounds_action_12 27
scooby_predict_action_22 100
scooby_predict_issue_action_22 87
scooby_predict_hit_action_22 13
scooby_predict_out_of_bounds_action_22 47
scooby_predict_action_23 75
scooby_predict_issue_action_23 71
scooby_predict_hit_action_23 4
scooby_predict_out_of_bounds_action_23 44
scooby_predict_action_30 72
scooby_predict_issue_action_30 70
scooby_predict_hit_action_30 2
scooby_predict_out_of_bounds_action_30 64
scooby_predict_action_32 6
scooby_predict_issue_action_32 4
scooby_predict_hit_action_32 2
scooby_predict_out_of_bounds_action_32 8
scooby_predict_action_-1 24117
scooby_predict_issue_action_-1 24112
scooby_predict_hit_action_-1 5
scooby_predict_out_of_bounds_action_-1 399
scooby_predict_action_-3 6
scooby_predict_issue_action_-3 5
scooby_predict_hit_action_-3 1
scooby_predict_out_of_bounds_action_-3 1
scooby_predict_action_-6 5
scooby_predict_issue_action_-6 4
scooby_predict_hit_action_-6 1
scooby_predict_out_of_bounds_action_-6 2
scooby_predict_action_0 11
scooby_predict_issue_action_0 0
scooby_predict_hit_action_0 0
scooby_predict_out_of_bounds_action_0 0
scooby_predict_multi_deg_called 44208
scooby_predict_predicted 221111
scooby_predict_multi_deg 168892
scooby_predict_multi_deg_2 43321
scooby_predict_multi_deg_3 37701
scooby_predict_multi_deg_4 36957
scooby_predict_multi_deg_5 25746
scooby_predict_multi_deg_6 25167
scooby_predict_multi_deg_7 0
scooby_predict_multi_deg_8 0
scooby_predict_multi_deg_9 0
scooby_predict_multi_deg_10 0
scooby_predict_multi_deg_11 0
scooby_predict_multi_deg_12 0
scooby_predict_multi_deg_13 0
scooby_predict_multi_deg_14 0
scooby_predict_multi_deg_15 0
scooby_predict_multi_deg_16 0

scooby_selected_deg_1 8011
scooby_selected_deg_2 4874
scooby_selected_deg_3 0
scooby_selected_deg_4 11162
scooby_selected_deg_5 0
scooby_selected_deg_6 28172
scooby_selected_deg_7 0
scooby_selected_deg_8 0
scooby_selected_deg_9 0
scooby_selected_deg_10 0
scooby_selected_deg_11 0
scooby_selected_deg_12 0
scooby_selected_deg_13 0
scooby_selected_deg_14 0
scooby_selected_deg_15 0
scooby_selected_deg_16 0

scooby_state_4a7dbb|0|0 428,0,0,0,0,0,0,0,0,0,0,1,0,0,0,429,
scooby_state_4a7db0|63|0 2,2,2,2,2,2,3,3,2,2,1,396,0,0,0,419,
scooby_state_4a7db0|62|-1 2,2,2,2,2,2,2,2,3,2,0,398,0,0,0,419,
scooby_state_4a7db0|0|-1 2,2,2,2,2,2,2,2,3,2,0,398,0,0,0,419,
scooby_state_4a7db0|61|-1 2,2,2,2,1,2,2,2,3,2,1,398,0,0,0,419,
scooby_state_4a7dbb|43|1 418,0,0,0,0,0,0,0,0,0,0,0,0,0,0,418,
scooby_state_4a7dbb|4|1 416,0,0,0,0,0,0,1,0,0,0,0,0,0,0,417,
scooby_state_4a7dbb|63|1 415,0,0,0,1,0,0,0,0,0,0,0,0,0,0,416,
scooby_state_4a7dbb|23|1 415,0,0,0,0,0,0,0,0,0,0,0,0,0,0,415,
scooby_state_4a7dbb|24|1 414,0,0,0,0,0,0,0,0,0,0,0,0,0,0,414,
scooby_state_4a7dbb|62|1 412,0,0,0,0,1,0,0,0,0,0,0,0,0,0,413,
scooby_state_4a7dbb|3|1 411,0,0,0,0,0,0,0,0,0,0,1,0,0,0,412,
scooby_state_4a7dbb|44|1 410,0,0,0,0,0,0,0,0,0,0,0,0,0,0,410,
scooby_state_4a7dbb|42|1 407,0,1,0,0,0,0,0,0,0,0,0,0,0,0,408,
scooby_state_4a7dbb|5|1 405,0,0,0,0,0,0,0,0,0,0,0,0,0,0,405,
scooby_state_4a7dbb|19|1 405,0,0,0,0,0,0,0,0,0,0,0,0,0,0,405,
scooby_state_4a7dbb|38|1 403,1,0,0,0,0,0,0,0,0,0,0,0,0,0,404,
scooby_state_4a7dbb|58|1 403,0,1,0,0,0,0,0,0,0,0,0,0,0,0,404,
scooby_state_4a7dbb|14|1 403,0,0,0,1,0,0,0,0,0,0,0,0,0,0,404,
scooby_state_4a7dbb|48|1 404,0,0,0,0,0,0,0,0,0,0,0,0,0,0,404,
scooby_state_4a7dbb|33|1 400,0,0,0,0,0,1,0,1,0,1,0,0,0,0,403,
scooby_state_4a7dbb|28|1 403,0,0,0,0,0,0,0,0,0,0,0,0,0,0,403,
scooby_state_4a7dbb|53|1 402,1,0,0,0,0,0,0,0,0,0,0,0,0,0,403,
scooby_state_4a7db0|14|-1 2,2,2,2,2,2,2,2,2,2,0,382,0,0,0,402,
scooby_state_4a7dbb|9|1 402,0,0,0,0,0,0,0,0,0,0,0,0,0,0,402,
scooby_state_4a7db0|22|-1 2,3,2,2,2,2,2,2,2,2,0,381,0,0,0,402,
scooby_state_4a7db0|5|-1 2,2,2,2,2,2,2,2,2,2,0,382,0,0,0,402,
scooby_state_4a7db0|7|-1 2,2,2,2,2,2,2,3,2,2,0,381,0,0,0,402,
scooby_state_4a7db0|49|-1 2,2,2,2,2,2,2,2,3,1,0,382,0,0,0,402,
scooby_state_4a7db0|4|-1 2,2,2,2,2,2,2,2,2,2,0,381,0,1,0,402,
scooby_state_4a7db0|45|-1 2,2,2,3,2,2,2,2,1,2,0,382,0,0,0,402,
scooby_state_4a7db0|23|-1 2,2,2,2,2,2,2,2,2,2,0,381,1,0,0,402,
scooby_state_4a7db0|15|-1 2,2,2,2,2,2,2,3,2,2,0,381,0,0,0,402,
scooby_state_4a7db0|56|-1 2,3,2,2,2,2,2,2,2,2,0,381,0,0,0,402,
scooby_state_4a7db0|1|-1 2,2,2,2,2,2,2,2,2,2,0,382,0,0,0,402,
scooby_state_4a7db0|10|-1 3,2,2,2,2,2,2,2,2,2,0,381,0,0,0,402,
scooby_state_4a7db0|3|-1 2,2,2,2,2,2,2,2,2,2,0,382,0,0,0,402,
scooby_state_4a7db0|9|-1 2,2,2,3,2,2,2,2,2,2,0,381,0,0,0,402,
scooby_state_4a7db0|11|-1 2,2,2,2,3,2,2,2,2,2,0,381,0,0,0,402,
scooby_state_4a7db0|24|-1 2,2,2,2,2,2,2,2,2,2,0,382,0,0,0,402,
scooby_state_4a7db0|20|-1 2,2,3,2,2,2,2,2,3,2,0,379,0,0,1,402,
scooby_state_4a7dbb|8|1 402,0,0,0,0,0,0,0,0,0,0,0,0,0,0,402,
scooby_state_4a7db0|13|-1 2,3,2,2,2,2,2,2,2,3,0,380,0,0,0,402,
scooby_state_4a7db0|26|-1 2,2,2,2,2,2,2,2,2,2,0,382,0,0,0,402,
scooby_state_4a7db0|12|-1 2,2,2,2,2,2,2,2,2,2,0,382,0,0,0,402,
scooby_state_4a7db0|59|-1 3,2,2,2,2,2,2,2,2,2,0,381,0,0,0,402,
scooby_state_4a7dbb|13|1 401,0,0,0,0,0,1,0,0,0,0,0,0,0,0,402,
scooby_state_4a7db0|58|-1 2,2,2,2,2,2,2,2,2,2,0,382,0,0,0,402,
scooby_state_4a7db0|19|-1 2,2,2,2,2,3,2,2,2,2,0,381,0,0,0,402,
scooby_state_4a7db0|57|-1 2,2,2,3,2,2,2,2,2,2,1,380,0,0,0,402,
scooby_state_4a7db0|55|-1 2,2,2,2,2,2,2,2,2,2,0,382,0,0,0,402,
scooby_state_4a7db0|50|-1 2,2,2,2,2,2,3,2,2,1,0,382,0,0,0,402,
scooby_state_4a7db0|46|-1 2,2,2,2,2,2,2,2,1,2,0,383,0,0,0,402,
scooby_state_4a7db0|47|-1 2,2,2,2,3,2,2,2,1,2,0,382,0,0,0,402,
scooby_state_4a7db0|48|-1 2,2,2,2,2,2,2,2,1,2,0,383,0,0,0,402,
scooby_state_4a7db0|51|-1 2,2,2,2,2,3,2,2,2,2,0,381,0,0,0,402,
scooby_state_4a7db0|53|-1 2,2,3,2,2,2,2,2,2,2,0,381,0,0,0,402,
scooby_state_4a7db0|6|-1 2,2,2,2,2,2,2,2,3,2,0,381,0,0,0,402,
scooby_state_4a7db0|54|-1 2,2,2,2,2,2,2,2,2,2,0,382,0,0,0,402,
scooby_state_4a7db0|25|-1 2,2,2,2,2,2,2,2,2,2,0,382,0,0,0,402,
scooby_state_4a7db0|52|-1 2,2,2,2,2,2,2,2,2,2,0,382,0,0,0,402,
scooby_state_4a7db0|17|-1 2,2,2,2,2,2,2,2,2,2,0,382,0,0,0,402,
scooby_state_4a7db0|60|-1 2,2,2,2,2,2,2,2,2,2,0,382,0,0,0,402,
scooby_state_4a7db0|2|-1 2,2,2,2,2,2,2,2,2,2,0,382,0,0,0,402,
scooby_state_4a7db0|21|-1 2,2,2,2,2,2,2,2,2,2,1,381,0,0,0,402,
scooby_state_4a7db0|8|-1 3,2,2,2,2,2,2,2,2,2,0,380,0,1,0,402,
scooby_state_4a7db0|18|-1 2,2,2,2,2,2,2,2,2,3,0,381,0,0,0,402,
scooby_state_4a7db0|16|-1 2,2,2,2,2,2,2,2,2,2,1,381,0,0,0,402,
scooby_state_4a7db0|44|-1 2,2,2,2,2,2,2,2,1,2,1,381,0,0,0,401,
scooby_state_4a7db0|35|-1 2,2,2,3,2,2,1,3,1,2,0,381,0,0,0,401,
scooby_state_4a7db0|28|-1 1,2,2,2,2,2,2,4,1,2,0,381,0,0,0,401,
scooby_state_4a7db0|38|-1 2,2,2,2,2,2,2,2,1,2,0,382,0,0,0,401,
scooby_state_4a7db0|33|-1 2,2,2,1,3,1,2,3,1,2,0,382,0,0,0,401,
scooby_state_4a7db0|43|-1 2,2,2,2,3,2,2,2,1,2,0,380,1,0,0,401,
scooby_state_4a7db0|37|-1 2,2,2,2,2,2,2,2,1,2,0,382,0,0,0,401,
scooby_state_4a7db0|34|-1 2,2,2,1,3,2,2,3,1,2,0,381,0,0,0,401,
scooby_state_4a7db0|29|-1 1,2,2,2,2,2,2,3,1,2,0,382,0,0,0,401,
scooby_state_4a7db0|42|-1 2,2,2,2,2,2,2,2,1,3,0,381,0,0,0,401,
scooby_state_4a7db0|39|-1 2,2,2,2,2,2,2,2,1,2,0,382,0,0,0,401,
scooby_state_4a7db0|41|-1 2,2,2,2,2,2,2,2,2,2,0,381,0,0,0,401,
scooby_state_4a7db0|40|-1 2,2,2,2,2,2,2,2,1,2,0,382,0,0,0,401,
scooby_state_4a7dbb|39|1 400,0,0,0,0,0,0,0,0,0,0,0,0,1,0,401,
scooby_state_4a7dbb|25|1 401,0,0,0,0,0,0,0,0,0,0,0,0,0,0,401,
scooby_state_4a7db0|30|-1 2,1,2,2,2,2,2,3,1,2,0,382,0,0,0,401,
scooby_state_4a7db0|32|-1 2,2,1,2,2,2,2,3,1,2,0,382,0,0,0,401,
scooby_state_4a7db0|27|-1 1,2,2,2,2,2,2,2,2,2,0,381,0,0,1,401,
scooby_state_4a7dbb|22|1 400,0,0,0,0,0,0,0,0,0,0,1,0,0,0,401,
scooby_state_4a7db0|31|-1 2,2,1,2,2,2,2,3,1,2,0,382,0,0,0,401,
scooby_state_4a7db0|36|-1 2,2,2,2,3,2,2,2,1,2,0,381,0,0,0,401,
scooby_state_4a7dbb|18|1 400,0,0,0,0,0,0,0,0,0,0,0,0,0,0,400,
scooby_state_4a7dbb|34|1 398,0,0,0,0,0,0,0,0,0,0,0,0,0,1,399,
scooby_state_4a7dbb|61|1 399,0,0,0,0,0,0,0,0,0,0,0,0,0,0,399,
scooby_state_4a7dbb|47|1 399,0,0,0,0,0,0,0,0,0,0,0,0,0,0,399,
scooby_state_4a7dbb|57|1 395,1,0,0,0,0,0,0,0,0,0,1,1,0,0,398,
scooby_state_4a7dbb|52|1 398,0,0,0,0,0,0,0,0,0,0,0,0,0,0,398,
scooby_state_4a7dbb|54|1 398,0,0,0,0,0,0,0,0,0,0,0,0,0,0,398,
scooby_state_4a7dbb|59|1 397,0,0,0,0,0,0,0,0,0,1,0,0,0,0,398,
scooby_state_4a7dbb|29|1 398,0,0,0,0,0,0,0,0,0,0,0,0,0,0,398,
scooby_state_4a7dbb|20|1 398,0,0,0,0,0,0,0,0,0,0,0,0,0,0,398,
scooby_state_4a7dbb|37|1 396,0,0,0,0,0,0,0,0,0,0,0,0,0,1,397,
scooby_state_4a7dbb|32|1 397,0,0,0,0,0,0,0,0,0,0,0,0,0,0,397,
scooby_state_4a7dbb|15|1 397,0,0,0,0,0,0,0,0,0,0,0,0,0,0,397,
scooby_state_4a7dbb|27|1 396,1,0,0,0,0,0,0,0,0,0,0,0,0,0,397,
scooby_state_4a7dbb|49|1 395,0,0,0,0,0,0,0,0,2,0,0,0,0,0,397,
scooby_state_4a7dbb|2|1 397,0,0,0,0,0,0,0,0,0,0,0,0,0,0,397,
scooby_state_4a7dbb|7|1 395,0,0,0,0,0,0,0,0,0,0,0,0,0,0,395,
scooby_state_4a7dbb|45|1 394,0,0,0,0,0,0,0,0,0,0,0,0,0,0,394,
scooby_state_4a7dbb|10|1 393,0,0,0,1,0,0,0,0,0,0,0,0,0,0,394,
scooby_state_4a7dbb|12|1 394,0,0,0,0,0,0,0,0,0,0,0,0,0,0,394,
scooby_state_4a7dbb|41|1 393,0,0,0,0,0,0,0,0,1,0,0,0,0,0,394,
scooby_state_4a7dbb|40|1 394,0,0,0,0,0,0,0,0,0,0,0,0,0,0,394,
scooby_state_4a7dbb|17|1 391,0,0,0,1,0,0,0,0,0,1,0,0,0,0,393,
scooby_state_4a7dbb|6|1 390,0,0,0,1,1,0,0,0,0,0,0,0,0,0,392,
scooby_state_4a7dbb|21|1 392,0,0,0,0,0,0,0,0,0,0,0,0,0,0,392,
scooby_state_4a7dbb|60|1 392,0,0,0,0,0,0,0,0,0,0,0,0,0,0,392,
scooby_state_4a7dbb|46|1 392,0,0,0,0,0,0,0,0,0,0,0,0,0,0,392,
scooby_state_4a7dbb|56|1 391,0,0,0,0,1,0,0,0,0,0,0,0,0,0,392,
scooby_state_4a7dbb|35|1 392,0,0,0,0,0,0,0,0,0,0,0,0,0,0,392,
scooby_state_4a7dbb|51|1 391,0,0,0,0,0,0,0,0,0,0,0,0,0,0,391,
scooby_state_4a7dbb|1|1 390,0,0,0,0,1,0,0,0,0,0,0,0,0,0,391,
scooby_state_4a7dbb|30|1 391,0,0,0,0,0,0,0,0,0,0,0,0,0,0,391,
scooby_state_4a7dbb|55|1 390,0,0,1,0,0,0,0,0,0,0,0,0,0,0,391,
scooby_state_4a7dbb|26|1 391,0,0,0,0,0,0,0,0,0,0,0,0,0,0,391,
scooby_state_4a7dbb|50|1 390,0,0,0,0,0,0,0,0,0,0,0,0,0,0,390,
scooby_state_4a7dbb|16|1 389,0,0,0,0,0,0,0,0,0,0,0,0,0,0,389,
scooby_state_4a7dbb|31|1 388,0,0,0,0,0,0,1,0,0,0,0,0,0,0,389,
scooby_state_4a7dbb|36|1 389,0,0,0,0,0,0,0,0,0,0,0,0,0,0,389,
scooby_state_4a7dbb|11|1 389,0,0,0,0,0,0,0,0,0,0,0,0,0,0,389,
scooby_state_4a7dbb|36|0 40,0,0,0,0,0,0,0,0,0,0,0,0,0,0,40,
scooby_state_4a7dbb|31|0 39,0,0,0,0,0,0,0,0,0,0,0,0,0,0,39,
scooby_state_4a7dbb|55|0 39,0,0,0,0,0,0,0,0,0,0,0,0,0,0,39,
scooby_state_4a7dbb|16|0 38,0,0,0,0,0,0,0,0,0,0,0,0,0,0,38,
scooby_state_4a7dbb|1|0 38,0,0,0,0,0,0,0,0,0,0,0,0,0,0,38,
scooby_state_4a7dbb|11|0 38,0,0,0,0,0,0,0,0,0,0,0,0,0,0,38,
scooby_state_4a7dbb|60|0 38,0,0,0,0,0,0,0,0,0,0,0,0,0,0,38,
scooby_state_4a7dbb|50|0 38,0,0,0,0,0,0,0,0,0,0,0,0,0,0,38,
scooby_state_4a7dbb|41|0 38,0,0,0,0,0,0,0,0,0,0,0,0,0,0,38,
scooby_state_4a7dbb|2|0 38,0,0,0,0,0,0,0,0,0,0,0,0,0,0,38,
scooby_state_4a7dbb|61|0 37,0,0,0,0,0,0,0,0,0,0,0,0,0,0,37,
scooby_state_4a7dbb|21|0 37,0,0,0,0,0,0,0,0,0,0,0,0,0,0,37,
scooby_state_4a7dbb|30|0 36,1,0,0,0,0,0,0,0,0,0,0,0,0,0,37,
scooby_state_4a7dbb|26|0 36,0,0,0,0,0,0,0,0,0,0,0,0,0,0,36,
scooby_state_4a7dbb|6|0 35,0,0,0,0,0,0,0,0,0,0,0,0,0,0,35,
scooby_state_4a7dbb|56|0 34,0,0,0,0,0,0,0,0,0,0,0,0,0,0,34,
scooby_state_4a7dbb|35|0 34,0,0,0,0,0,0,0,0,0,0,0,0,0,0,34,
scooby_state_4a7dbb|40|0 33,0,0,0,0,0,0,0,0,0,0,0,0,0,0,33,
scooby_state_4a7dbb|51|0 33,0,0,0,0,0,0,0,0,0,0,0,0,0,0,33,
scooby_state_4a7dbb|22|0 33,0,0,0,0,0,0,0,0,0,0,0,0,0,0,33,
scooby_state_4a7dbb|45|0 32,0,0,0,0,0,0,0,0,0,0,0,0,0,0,32,
scooby_state_4a7dbb|10|0 32,0,0,0,0,0,0,0,0,0,0,0,0,0,0,32,
scooby_state_4a7dbb|46|0 32,0,0,0,0,0,0,0,0,0,0,0,0,0,0,32,
scooby_state_4a7dbb|12|0 32,0,0,0,0,0,0,0,0,0,0,0,0,0,0,32,
scooby_state_4a7dbb|17|0 32,0,0,0,0,0,0,0,0,0,0,0,0,0,0,32,
scooby_state_4a7dbb|49|0 31,0,0,0,0,0,0,0,0,0,0,0,0,0,0,31,
scooby_state_4a7dbb|15|0 31,0,0,0,0,0,0,0,0,0,0,0,0,0,0,31,
scooby_state_4a7dbb|7|0 31,0,0,0,0,0,0,0,0,0,0,0,0,0,0,31,
scooby_state_4a7dbb|20|0 31,0,0,0,0,0,0,0,0,0,0,0,0,0,0,31,
scooby_state_4a7dbb|42|0 31,0,0,0,0,0,0,0,0,0,0,0,0,0,0,31,
scooby_state_4a7dbb|54|0 30,0,0,0,0,0,0,0,0,0,0,0,0,0,0,30,
scooby_state_4a7dbb|25|0 29,0,0,0,0,0,0,0,0,0,1,0,0,0,0,30,
scooby_state_4a7dbb|37|0 30,0,0,0,0,0,0,0,0,0,0,0,0,0,0,30,
scooby_state_4a7dbb|59|0 29,0,0,0,0,0,0,0,0,0,0,0,0,0,0,29,
scooby_state_4a7dbb|3|0 28,0,0,0,0,0,0,0,0,0,0,0,0,0,0,28,
scooby_state_4a7dbb|32|0 28,0,0,0,0,0,0,0,0,0,0,0,0,0,0,28,
scooby_state_4a7dbb|62|0 26,0,0,0,0,0,0,0,0,0,0,0,0,0,0,26,
scooby_state_4a7dbb|27|0 26,0,0,0,0,0,0,0,0,0,0,0,0,0,0,26,
scooby_state_4a7dbb|29|0 26,0,0,0,0,0,0,0,0,0,0,0,0,0,0,26,
scooby_state_4a7dbb|57|0 25,0,0,0,0,0,0,0,0,0,0,0,0,0,0,25,
scooby_state_4a7dbb|34|0 24,0,1,0,0,0,0,0,0,0,0,0,0,0,0,25,
scooby_state_4a7dbb|5|0 25,0,0,0,0,0,0,0,0,0,0,0,0,0,0,25,
scooby_state_4a7dbb|18|0 24,0,0,0,0,0,0,0,0,0,0,0,0,0,0,24,
scooby_state_4a7dbb|47|0 24,0,0,0,0,0,0,0,0,0,0,0,0,0,0,24,
scooby_state_4a7dbb|39|0 24,0,0,0,0,0,0,0,0,0,0,0,0,0,0,24,
scooby_state_4a7dbb|52|0 24,0,0,0,0,0,0,0,0,0,0,0,0,0,0,24,
scooby_state_4a7dbb|23|0 24,0,0,0,0,0,0,0,0,0,0,0,0,0,0,24,
scooby_state_4a7dbb|44|0 23,0,0,0,0,0,0,0,0,0,0,0,0,0,0,23,
scooby_state_4a7dbb|14|0 23,0,0,0,0,0,0,0,0,0,0,0,0,0,0,23,
scooby_state_4a7dbb|13|0 23,0,0,0,0,0,0,0,0,0,0,0,0,0,0,23,
scooby_state_4a7dbb|9|0 23,0,0,0,0,0,0,0,0,0,0,0,0,0,0,23,
scooby_state_4a7dbb|43|0 22,0,0,0,0,0,0,0,0,0,0,0,0,0,0,22,
scooby_state_4a7dbb|8|0 22,0,0,0,0,0,0,0,0,0,0,0,0,0,0,22,
scooby_state_4a7dbb|19|0 22,0,0,0,0,0,0,0,0,0,0,0,0,0,0,22,
scooby_state_4a7dbb|48|0 22,0,0,0,0,0,0,0,0,0,0,0,0,0,0,22,
scooby_state_4a7dbb|24|0 21,0,0,0,0,0,0,0,0,0,0,0,0,0,0,21,
scooby_state_4a7dbb|53|0 21,0,0,0,0,0,0,0,0,0,0,0,0,0,0,21,
scooby_state_4a7dbb|38|0 20,0,0,0,0,0,0,0,0,0,0,0,0,0,0,20,
scooby_state_4a7dbb|28|0 19,0,0,0,0,0,0,0,0,0,0,0,0,0,0,19,
scooby_state_4a7dbb|58|0 19,0,0,0,0,0,0,0,0,0,0,0,0,0,0,19,
scooby_state_4a7dbb|4|0 19,0,0,0,0,0,0,0,0,0,0,0,0,0,0,19,
scooby_state_4a7dbb|33|0 19,0,0,0,0,0,0,0,0,0,0,0,0,0,0,19,
scooby_state_4a7dbb|63|0 19,0,0,0,0,0,0,0,0,0,0,0,0,0,0,19,
scooby_state_4a7e72|59|0 17,0,0,0,0,0,0,0,0,0,0,0,0,0,0,17,
scooby_state_4a7ea0|7|0 11,2,1,1,1,1,0,0,0,0,0,0,0,0,0,17,
scooby_state_4a7bc0|32|0 17,0,0,0,0,0,0,0,0,0,0,0,0,0,0,17,
scooby_state_4a7bd7|33|1 1,16,0,0,0,0,0,0,0,0,0,0,0,0,0,17,
scooby_state_4a8cf0|27|0 3,1,1,1,1,1,1,1,1,1,1,1,1,1,1,17,
scooby_state_4a85e0|60|3 2,1,1,1,1,1,1,1,1,1,1,1,1,1,2,17,
scooby_state_4a7db0|1|0 0,0,0,0,0,0,0,1,0,0,0,16,0,0,0,17,
scooby_state_4a8d14|57|0 1,0,0,0,0,0,0,0,0,0,0,16,0,0,0,17,
scooby_state_4a7e7a|57|-2 17,0,0,0,0,0,0,0,0,0,0,0,0,0,0,17,
scooby_state_4a861c|58|-2 2,1,1,1,1,1,1,1,1,1,1,1,1,1,2,17,
scooby_state_4a8c75|1|0 0,0,0,0,0,0,0,1,1,1,1,1,1,1,1,8,
scooby_state_4a8c75|0|0 1,1,1,1,1,1,1,0,0,0,0,0,0,0,0,7,
scooby_state_4a8c75|2|0 1,0,0,0,0,0,0,0,0,0,0,0,0,0,1,2,
scooby_state_4a8c70|49|10 1,0,0,0,0,0,0,0,0,0,0,0,0,0,0,1,
scooby_state_4a8c84|50|1 1,0,0,0,0,0,0,0,0,0,0,0,0,0,0,1,
scooby_state_4a7db0|27|0 1,0,0,0,0,0,0,0,0,0,0,0,0,0,0,1,
scooby_state_4a8943|37|1 1,0,0,0,0,0,0,0,0,0,0,0,0,0,0,1,
scooby_state_4a7bc0|47|11 1,0,0,0,0,0,0,0,0,0,0,0,0,0,0,1,
scooby_state_4a7905|36|1 1,0,0,0,0,0,0,0,0,0,0,0,0,0,0,1,
scooby_state_4a7855|2|1 0,1,0,0,0,0,0,0,0,0,0,0,0,0,0,1,
scooby_state_4a78d0|35|1 1,0,0,0,0,0,0,0,0,0,0,0,0,0,0,1,
scooby_state_4a7894|34|1 1,0,0,0,0,0,0,0,0,0,0,0,0,0,0,1,
scooby_state_4a7850|33|-25 1,0,0,0,0,0,0,0,0,0,0,0,0,0,0,1,
scooby_state_4a8a62|41|4 1,0,0,0,0,0,0,0,0,0,0,0,0,0,0,1,
scooby_state_4a8920|36|1 1,0,0,0,0,0,0,0,0,0,0,0,0,0,0,1,
scooby_state_4a7e82|58|0 1,0,0,0,0,0,0,0,0,0,0,0,0,0,0,1,
scooby_state_4a7e42|57|2 1,0,0,0,0,0,0,0,0,0,0,0,0,0,0,1,
scooby_state_4a7e4a|55|-1 1,0,0,0,0,0,0,0,0,0,0,0,0,0,0,1,
scooby_state_4a7e45|56|0 1,0,0,0,0,0,0,0,0,0,0,0,0,0,0,1,
scooby_state_4a8994|38|-3 1,0,0,0,0,0,0,0,0,0,0,0,0,0,0,1,
scooby_state_4a85db|23|0 1,0,0,0,0,0,0,0,0,0,0,0,0,0,0,1,
scooby_state_4a8d03|52|1 1,0,0,0,0,0,0,0,0,0,0,0,0,0,0,1,
scooby_state_4a7dc0|55|1 1,0,0,0,0,0,0,0,0,0,0,0,0,0,0,1,
scooby_state_4a7855|1|1 1,0,0,0,0,0,0,0,0,0,0,0,0,0,0,1,
scooby_state_4a7d50|53|6 1,0,0,0,0,0,0,0,0,0,0,0,0,0,0,1,
scooby_state_4a7e32|56|0 1,0,0,0,0,0,0,0,0,0,0,0,0,0,0,1,
scooby_state_4a8605|24|1 1,0,0,0,0,0,0,0,0,0,0,0,0,0,0,1,
scooby_state_4a8641|25|1 1,0,0,0,0,0,0,0,0,0,0,0,0,0,0,1,
scooby_state_4a7db0|54|-2 1,0,0,0,0,0,0,0,0,0,0,0,0,0,0,1,
scooby_state_4a89c1|39|1 1,0,0,0,0,0,0,0,0,0,0,0,0,0,0,1,
scooby_state_4a88c0|35|1 1,0,0,0,0,0,0,0,0,0,0,0,0,0,0,1,
scooby_state_4a8890|34|9 1,0,0,0,0,0,0,0,0,0,0,0,0,0,0,1,
scooby_state_4a8cf0|51|1 1,0,0,0,0,0,0,0,0,0,0,0,0,0,0,1,

scooby_action_0_deg_dist 0,11,0,0,0,0,0,0,0,0,0,0,0,0,0,0,
scooby_action_-6_deg_dist 0,7,0,0,0,0,0,0,0,0,0,0,0,0,0,0,
scooby_action_4_deg_dist 0,28,6,0,15,0,87,0,0,0,0,0,0,0,0,0,
scooby_action_1_deg_dist 0,6711,4125,0,9273,0,7490,0,0,0,0,0,0,0,0,0,
scooby_action_30_deg_dist 0,74,4,0,10,0,48,0,0,0,0,0,0,0,0,0,
scooby_action_5_deg_dist 0,30,6,0,15,0,85,0,0,0,0,0,0,0,0,0,
scooby_action_10_deg_dist 0,47,6,0,15,0,75,0,0,0,0,0,0,0,0,0,
scooby_action_3_deg_dist 0,48,6,0,15,0,89,0,0,0,0,0,0,0,0,0,
scooby_action_32_deg_dist 0,14,0,0,0,0,0,0,0,0,0,0,0,0,0,0,
scooby_action_11_deg_dist 0,44,6,0,15,0,73,0,0,0,0,0,0,0,0,0,
scooby_action_12_deg_dist 0,42,6,0,15,0,72,0,0,0,0,0,0,0,0,0,
scooby_action_22_deg_dist 0,74,6,0,15,0,52,0,0,0,0,0,0,0,0,0,
scooby_action_23_deg_dist 0,57,4,0,10,0,48,0,0,0,0,0,0,0,0,0,
scooby_action_-1_deg_dist 0,1253,766,0,1915,0,20582,0,0,0,0,0,0,0,0,0,
scooby_action_-3_deg_dist 0,7,0,0,0,0,0,0,0,0,0,0,0,0,0,0,

scooby_track_called 53402
scooby_track_same_address 70
scooby_track_evict 53076

scooby_reward_demand_called 53402
scooby_reward_demand_pt_not_found 4151
scooby_reward_demand_pt_found 49251
scooby_reward_demand_pt_found_total 49251
scooby_reward_demand_has_reward 0
scooby_reward_train_called 2960
scooby_reward_assign_reward_called 53313
scooby_reward_no_pref 10
scooby_reward_incorrect 2950
scooby_reward_correct_untimely 39138
scooby_reward_correct_timely 10113
scooby_reward_out_of_bounds 1102
scooby_reward_tracker_hit 0

scooby_reward_none_low_bw 10
scooby_reward_none_high_bw 0
scooby_reward_incorrect_low_bw 2950
scooby_reward_incorrect_high_bw 0
scooby_reward_correct_untimely_low_bw 39138
scooby_reward_correct_untimely_high_bw 0
scooby_reward_correct_timely_low_bw 10113
scooby_reward_correct_timely_high_bw 0
scooby_reward_out_of_bounds_low_bw 1102
scooby_reward_out_of_bounds_high_bw 0
scooby_reward_tracker_hit_low_bw 0
scooby_reward_tracker_hit_high_bw 0

scooby_reward_1 0,1971,16640,8524,436,0,
scooby_reward_3 0,141,3,2,6,0,
scooby_reward_4 0,121,0,3,9,0,
scooby_reward_5 0,119,0,1,11,0,
scooby_reward_10 0,111,0,1,22,0,
scooby_reward_11 0,108,0,0,26,0,
scooby_reward_12 0,106,0,0,27,0,
scooby_reward_22 0,87,0,0,47,0,
scooby_reward_23 0,71,0,0,44,0,
scooby_reward_30 0,70,0,0,64,0,
scooby_reward_32 0,4,0,0,8,0,
scooby_reward_-1 0,35,22493,1581,399,0,
scooby_reward_-3 0,3,2,0,1,0,
scooby_reward_-6 0,3,0,1,2,0,
scooby_reward_0 10,0,0,0,0,0,

scooby_train_called 53075
scooby_train_compute_reward 2960

scooby_register_fill_called 59045
scooby_register_fill_set 10361
scooby_register_fill_set_total 10361

scooby_register_prefetch_hit_called 162042
scooby_register_prefetch_hit_set 44386
scooby_register_prefetch_hit_set_total 44386

scooby_pref_issue_scooby 221111

learning_engine_featurewise.action.called 53402
learning_engine_featurewise.action.explore 81
learning_engine_featurewise.action.exploit 53321
learning_engine_featurewise.action.fallback 0
learning_engine_featurewise.action.dyn_fallback_saved_bw 0
learning_engine_featurewise.action.dyn_fallback_saved_bw_acc 0
learning_engine_featurewise.action.index_1_explored 5
learning_engine_featurewise.action.index_1_exploited 27594
learning_engine_featurewise.action.index_3_explored 8
learning_engine_featurewise.action.index_3_exploited 150
learning_engine_featurewise.action.index_4_explored 5
learning_engine_featurewise.action.index_4_exploited 131
learning_engine_featurewise.action.index_5_explored 5
learning_engine_featurewise.action.index_5_exploited 131
learning_engine_featurewise.action.index_10_explored 9
learning_engine_featurewise.action.index_10_exploited 134
learning_engine_featurewise.action.index_11_explored 7
learning_engine_featurewise.action.index_11_exploited 131
learning_engine_featurewise.action.index_12_explored 3
learning_engine_featurewise.action.index_12_exploited 132
learning_engine_featurewise.action.index_22_explored 5
learning_engine_featurewise.action.index_22_exploited 142
learning_engine_featurewise.action.index_23_explored 5
learning_engine_featurewise.action.index_23_exploited 114
learning_engine_featurewise.action.index_30_explored 6
learning_engine_featurewise.action.index_30_exploited 130
learning_engine_featurewise.action.index_32_explored 9
learning_engine_featurewise.action.index_32_exploited 5
learning_engine_featurewise.action.index_-1_explored 4
learning_engine_featurewise.action.index_-1_exploited 24512
learning_engine_featurewise.action.index_-3_explored 3
learning_engine_featurewise.action.index_-3_exploited 4
learning_engine_featurewise.action.index_-6_explored 3
learning_engine_featurewise.action.index_-6_exploited 4
learning_engine_featurewise.action.index_0_explored 4
learning_engine_featurewise.action.index_0_exploited 7
learning_engine_featurewise.learn.called 53075
learning_engine_featurewise.learn.su_skip_PC 0
learning_engine_featurewise.learn.su_skip_PC_Delta 0

learning_engine_featurewise.q_value_histogram.bucket_0 0
learning_engine_featurewise.q_value_histogram.bucket_1 0
learning_engine_featurewise.q_value_histogram.bucket_2 0
learning_engine_featurewise.q_value_histogram.bucket_3 6
learning_engine_featurewise.q_value_histogram.bucket_4 1746
learning_engine_featurewise.q_value_histogram.bucket_5 173
learning_engine_featurewise.q_value_histogram.bucket_6 51396
learning_engine_featurewise.q_value_histogram.bucket_7 0

learning_engine_featurewise.consensus.total 53321
learning_engine_featurewise.consensus.feature_align_PC 53310
learning_engine_featurewise.consensus.feature_align_PC_ratio 1.00
learning_engine_featurewise.consensus.feature_align_PC_Delta 53277
learning_engine_featurewise.consensus.feature_align_PC_Delta_ratio 1.00
learning_engine_featurewise.consensus.feature_align_all 53266
learning_engine_featurewise.consensus.feature_align_all_ratio 1.00

learning_engine_featurewise.feature_PC_min_weight 1000000.00000000
learning_engine_featurewise.feature_PC_max_weight 0.00000000
learning_engine_featurewise.feature_PC_Delta_min_weight 1000000.00000000
learning_engine_featurewise.feature_PC_Delta_max_weight 0.00000000
unique_pcs 37
unique_pages 171
unique_trigger_pcs 12
total_bitmaps_seen 0
unique_bitmaps_seen 0

scooby_bw_epochs 180667
scooby_bw_level_0 180667
scooby_bw_level_1 0
scooby_bw_level_2 0
scooby_bw_level_3 0

scooby_ipc_epochs 0
scooby_ipc_level_0 0
scooby_ipc_level_1 0
scooby_ipc_level_2 0
scooby_ipc_level_3 0

scooby_cache_acc_epochs 45167
scooby_cache_acc_level_0 454
scooby_cache_acc_level_1 1068
scooby_cache_acc_level_2 3696
scooby_cache_acc_level_3 7208
scooby_cache_acc_level_4 3892
scooby_cache_acc_level_5 2551
scooby_cache_acc_level_6 8275
scooby_cache_acc_level_7 2762
scooby_cache_acc_level_8 3891
scooby_cache_acc_level_9 11370

Channel_0_RQ_row_buffer_hit 15
Channel_0_RQ_row_buffer_miss 215
Channel_0_WQ_row_buffer_hit 0
Channel_0_WQ_row_buffer_miss 0
Channel_0_WQ_full 0
Channel_0_dbus_congested 0

avg_congested_cycle 0

DRAM_bw_pochs 180667
DRAM_bw_level_0 180667
DRAM_bw_level_1 0
DRAM_bw_level_2 0
DRAM_bw_level_3 0
