*************************************************
   ChampSim Multicore Out-of-Order Simulator
   Last compiled: Nov 30 2023 20:03:41
*************************************************
parsing config file: /home/gio/Prefetcher-Research-Project/config/pythia.ini

trace_0 /home/gio/Prefetcher-Research-Project/traces/605.mcf_s-472B.champsimtrace.xz
adding L2C_PREFETCHER: Scooby
Initialize SHIP state
warmup_instructions 100000
simulation_instructions 500000
champsim_seed 223
measure_ipc 0
measure_ipc_epoch 1000
measure_dram_bw 1
measure_dram_bw_epoch 256
measure_cache_acc 1
measure_cache_acc_epoch 1024
l1d_perfect 0
l2c_perfect 0
llc_perfect 0
l1d_semi_perfect 0
l2c_semi_perfect 0
llc_semi_perfect 0
semi_perfect_cache_page_buffer_size 64

num_cpus 1
cpu_freq 550
dram_io_freq 2400
page_size 4096
block_size 64
max_read_per_cycle 8
max_fill_per_cycle 1
dram_channels 1
log2_dram_channels 0
dram_ranks 1
dram_banks 8
dram_rows 65536
dram_columns 128
dram_row_size 8
dram_size 4096
dram_pages 1048576

fetch_width 2
decode_width 2
exec_width 2
lq_width 1
sq_width 1
retire_width 5
scheduler_size 1
branch_mispredict_penalty 1
rob_size 256
lq_size 72
sq_size 56
num_instr_destinations_sparc 4
num_instr_destinations 2
num_instr_sources 4

itlb_set 1024
itlb_way 1024
itlb_rq_size 16
itlb_wq_size 16
itlb_pq_size 0
itlb_mshr_size 8
itlb_latency 0

dtlb_set 1024
dtlb_way 1024
dtlb_rq_size 32
dtlb_wq_size 32
dtlb_pq_size 0
dtlb_mshr_size 8
dtlb_latency 1

stlb_set 1024
stlb_way 1024
stlb_rq_size 32
stlb_wq_size 32
stlb_pq_size 0
stlb_mshr_size 16
stlb_latency 0

l1i_size 32
l1i_set 64
l1i_way 8
l1i_rq_size 64
l1i_wq_size 64
l1i_pq_size 32
l1i_mshr_size 8
l1i_latency 4

l1d_size 48
l1d_set 64
l1d_way 12
l1d_rq_size 64
l1d_wq_size 64
l1d_pq_size 8
l1d_mshr_size 16
l1d_latency 5

l2c_size 512
l2c_set 1024
l2c_way 8
l2c_rq_size 32
l2c_wq_size 32
l2c_pq_size 16
l2c_mshr_size 32
l2c_latency 10

llc_size 2048
llc_set 2048
llc_way 16
llc_rq_size 32
llc_wq_size 32
llc_pq_size 32
llc_mshr_size 64
llc_latency 20

dram_channel_width 8
dram_wq_size 64
dram_rq_size 64
tRP 15
tRCD 15
tCAS 12.5
dram_dbus_turn_around_time 4
dram_write_high_wm 56
dram_write_low_wm 48
min_dram_writes_per_switch 16
dram_mtps 2400
dram_dbus_return_time 1

scooby_alpha 0.0065088
scooby_gamma 0.556301
scooby_epsilon 0.00182284
scooby_state_num_bits 10
scooby_max_states 1024
scooby_seed 200
scooby_policy EGreedy
scooby_learning_type SARSA
scooby_actions 1,3,4,5,10,11,12,22,23,30,32,-1,-3,-6,0,
scooby_max_actions 15
scooby_pt_size 256
scooby_st_size 64
scooby_max_pcs 5
scooby_max_offsets 5
scooby_max_deltas 5
scooby_reward_none -4
scooby_reward_incorrect -8
scooby_reward_correct_untimely 12
scooby_reward_correct_timely 20
scooby_brain_zero_init 0
scooby_enable_reward_all 0
scooby_enable_track_multiple 0
scooby_enable_reward_out_of_bounds 1
scooby_reward_out_of_bounds -12
scooby_state_type 1
scooby_state_hash_type 11
scooby_access_debug 0
scooby_print_access_debug 0
scooby_print_access_debug_pc deadbeef
scooby_print_access_debug_pc_count 0
scooby_print_trace 0
scooby_enable_state_action_stats 1
scooby_enable_reward_tracker_hit 0
scooby_reward_tracker_hit -2
scooby_enable_featurewise_engine 1
scooby_pref_degree 1
scooby_enable_dyn_degree 1
scooby_max_to_avg_q_thresholds 0.5,1,2,
scooby_dyn_degrees 1,2,4,4,
scooby_multi_deg_select_type 2
scooby_last_pref_offset_conf_thresholds 1,3,8,
scooby_dyn_degrees_type2 1,2,4,6,
scooby_action_tracker_size 2
scooby_high_bw_thresh 4
scooby_enable_hbw_reward 1
scooby_reward_hbw_correct_timely 20
scooby_reward_hbw_correct_untimely 12
scooby_reward_hbw_incorrect -14
scooby_reward_hbw_none -2
scooby_reward_hbw_out_of_bounds -12
scooby_reward_hbw_tracker_hit -2
scooby_last_pref_offset_conf_thresholds_hbw 1,3,8,
scooby_dyn_degrees_type2_hbw 1,2,4,6,

le_enable_trace 0
le_trace_interval 0
le_trace_file_name 
le_trace_state 0
le_enable_score_plot 0
le_plot_file_name 
le_plot_actions 
le_enable_action_trace 0
le_action_trace_interval 0
le_action_trace_name 
le_enable_action_plot 0

le_featurewise_active_features PC, PC_Delta
le_featurewise_num_tilings 3,3,
le_featurewise_num_tiles 128,128,
le_featurewise_hash_types 2,2,
le_featurewise_enable_tiling_offset 1,1,
le_featurewise_max_q_thresh 0.5
le_featurewise_enable_action_fallback 1
le_featurewise_feature_weights 1,1,
le_featurewise_enable_dynamic_weight 0
le_featurewise_weight_gradient 0.001
le_featurewise_disable_adjust_weight_all_features_align 1
le_featurewise_selective_update 0
le_featurewise_pooling_type 2
le_featurewise_enable_dyn_action_fallback 1
le_featurewise_bw_acc_check_level 1
le_featurewise_acc_thresh 2
le_featurewise_enable_trace 0
le_featurewise_trace_feature_type 0
le_featurewise_trace_feature 
le_featurewise_trace_interval 0
le_featurewise_trace_record_count 0
le_featurewise_trace_file_name 
le_featurewise_enable_score_plot 0
le_featurewise_plot_actions 
le_featurewise_plot_file_name 



Warmup complete CPU  0 instructions:     100001 cycles:     163582 (Simulation time: 0 hr 0 min 1 sec) 

Finished CPU 0 instructions: 500000 cycles: 5242938 cumulative IPC: 0.0953664 (Simulation time: 0 hr 0 min 5 sec) 

ChampSim completed all CPUs

[ROI Statistics]
Core_0_instructions 500000
Core_0_cycles 5242938
Core_0_IPC 0.0953664

Core_0_branch_prediction_accuracy 98.5571
Core_0_branch_MPKI 1.278
Core_0_average_ROB_occupancy_at_mispredict 232.213

Core_0_L1D_total_access 303834
Core_0_L1D_total_hit 298557
Core_0_L1D_total_miss 5277
Core_0_L1D_loads 150361
Core_0_L1D_load_hit 145946
Core_0_L1D_load_miss 4415
Core_0_L1D_RFOs 153473
Core_0_L1D_RFO_hit 152611
Core_0_L1D_RFO_miss 862
Core_0_L1D_prefetches 0
Core_0_L1D_prefetch_hit 0
Core_0_L1D_prefetch_miss 0
Core_0_L1D_writebacks 0
Core_0_L1D_writeback_hit 0
Core_0_L1D_writeback_miss 0
Core_0_L1D_prefetch_requested 0
Core_0_L1D_prefetch_dropped 0
Core_0_L1D_prefetch_issued 0
Core_0_L1D_prefetch_filled 0
Core_0_L1D_prefetch_useful 0
Core_0_L1D_prefetch_useless 0
Core_0_L1D_prefetch_late 0
Core_0_L1D_average_miss_latency 41.7838

Core_0_L1D_rq_access 150361
Core_0_L1D_rq_forward 0
Core_0_L1D_rq_merged 0
Core_0_L1D_rq_to_cache 150361
Core_0_L1D_rq_full 0

Core_0_L1D_wq_access 155519
Core_0_L1D_wq_forward 0
Core_0_L1D_wq_merged 0
Core_0_L1D_wq_to_cache 155519
Core_0_L1D_wq_full 0

Core_0_L1D_pq_access 0
Core_0_L1D_pq_forward 0
Core_0_L1D_pq_merged 0
Core_0_L1D_pq_to_cache 0
Core_0_L1D_pq_full 0

Core_0_L1D_acc_epochs 5265
Core_0_L1D_acc_level_0 5265
Core_0_L1D_acc_level_1 0
Core_0_L1D_acc_level_2 0
Core_0_L1D_acc_level_3 0
Core_0_L1D_acc_level_4 0
Core_0_L1D_acc_level_5 0
Core_0_L1D_acc_level_6 0
Core_0_L1D_acc_level_7 0
Core_0_L1D_acc_level_8 0
Core_0_L1D_acc_level_9 0

Core_0_L1I_total_access 371684
Core_0_L1I_total_hit 371684
Core_0_L1I_total_miss 0
Core_0_L1I_loads 371684
Core_0_L1I_load_hit 371684
Core_0_L1I_load_miss 0
Core_0_L1I_RFOs 0
Core_0_L1I_RFO_hit 0
Core_0_L1I_RFO_miss 0
Core_0_L1I_prefetches 0
Core_0_L1I_prefetch_hit 0
Core_0_L1I_prefetch_miss 0
Core_0_L1I_writebacks 0
Core_0_L1I_writeback_hit 0
Core_0_L1I_writeback_miss 0
Core_0_L1I_prefetch_requested 0
Core_0_L1I_prefetch_dropped 0
Core_0_L1I_prefetch_issued 0
Core_0_L1I_prefetch_filled 0
Core_0_L1I_prefetch_useful 0
Core_0_L1I_prefetch_useless 0
Core_0_L1I_prefetch_late 0
Core_0_L1I_average_miss_latency -nan

Core_0_L1I_rq_access 499901
Core_0_L1I_rq_forward 0
Core_0_L1I_rq_merged 128217
Core_0_L1I_rq_to_cache 371684
Core_0_L1I_rq_full 0

Core_0_L1I_wq_access 0
Core_0_L1I_wq_forward 0
Core_0_L1I_wq_merged 0
Core_0_L1I_wq_to_cache 0
Core_0_L1I_wq_full 0

Core_0_L1I_pq_access 0
Core_0_L1I_pq_forward 0
Core_0_L1I_pq_merged 0
Core_0_L1I_pq_to_cache 0
Core_0_L1I_pq_full 0

Core_0_L1I_acc_epochs 5265
Core_0_L1I_acc_level_0 5265
Core_0_L1I_acc_level_1 0
Core_0_L1I_acc_level_2 0
Core_0_L1I_acc_level_3 0
Core_0_L1I_acc_level_4 0
Core_0_L1I_acc_level_5 0
Core_0_L1I_acc_level_6 0
Core_0_L1I_acc_level_7 0
Core_0_L1I_acc_level_8 0
Core_0_L1I_acc_level_9 0

Core_0_L2C_total_access 21362
Core_0_L2C_total_hit 14268
Core_0_L2C_total_miss 7094
Core_0_L2C_loads 4415
Core_0_L2C_load_hit 2759
Core_0_L2C_load_miss 1656
Core_0_L2C_RFOs 862
Core_0_L2C_RFO_hit 172
Core_0_L2C_RFO_miss 690
Core_0_L2C_prefetches 13625
Core_0_L2C_prefetch_hit 8882
Core_0_L2C_prefetch_miss 4743
Core_0_L2C_writebacks 2460
Core_0_L2C_writeback_hit 2455
Core_0_L2C_writeback_miss 5
Core_0_L2C_prefetch_requested 18217
Core_0_L2C_prefetch_dropped 0
Core_0_L2C_prefetch_issued 18217
Core_0_L2C_prefetch_filled 5762
Core_0_L2C_prefetch_useful 3362
Core_0_L2C_prefetch_useless 282
Core_0_L2C_prefetch_late 70
Core_0_L2C_average_miss_latency 61.3386

Core_0_L2C_rq_access 5277
Core_0_L2C_rq_forward 0
Core_0_L2C_rq_merged 0
Core_0_L2C_rq_to_cache 5277
Core_0_L2C_rq_full 0

Core_0_L2C_wq_access 2460
Core_0_L2C_wq_forward 0
Core_0_L2C_wq_merged 0
Core_0_L2C_wq_to_cache 2460
Core_0_L2C_wq_full 0

Core_0_L2C_pq_access 18217
Core_0_L2C_pq_forward 0
Core_0_L2C_pq_merged 472
Core_0_L2C_pq_to_cache 17745
Core_0_L2C_pq_full 0

Core_0_L2C_acc_epochs 5265
Core_0_L2C_acc_level_0 3384
Core_0_L2C_acc_level_1 553
Core_0_L2C_acc_level_2 356
Core_0_L2C_acc_level_3 275
Core_0_L2C_acc_level_4 165
Core_0_L2C_acc_level_5 232
Core_0_L2C_acc_level_6 112
Core_0_L2C_acc_level_7 80
Core_0_L2C_acc_level_8 27
Core_0_L2C_acc_level_9 81

Core_0_LLC_total_access 7310
Core_0_LLC_total_hit 224
Core_0_LLC_total_miss 7086
Core_0_LLC_loads 1587
Core_0_LLC_load_hit 2
Core_0_LLC_load_miss 1585
Core_0_LLC_RFOs 690
Core_0_LLC_RFO_hit 0
Core_0_LLC_RFO_miss 690
Core_0_LLC_prefetches 4812
Core_0_LLC_prefetch_hit 1
Core_0_LLC_prefetch_miss 4811
Core_0_LLC_writebacks 221
Core_0_LLC_writeback_hit 221
Core_0_LLC_writeback_miss 0
Core_0_LLC_prefetch_requested 0
Core_0_LLC_prefetch_dropped 0
Core_0_LLC_prefetch_issued 0
Core_0_LLC_prefetch_filled 5831
Core_0_LLC_prefetch_useful 2
Core_0_LLC_prefetch_useless 0
Core_0_LLC_prefetch_late 0
Core_0_LLC_average_miss_latency 31.322

Core_0_LLC_rq_access 2277
Core_0_LLC_rq_forward 0
Core_0_LLC_rq_merged 0
Core_0_LLC_rq_to_cache 2277
Core_0_LLC_rq_full 0

Core_0_LLC_wq_access 221
Core_0_LLC_wq_forward 0
Core_0_LLC_wq_merged 0
Core_0_LLC_wq_to_cache 221
Core_0_LLC_wq_full 0

Core_0_LLC_pq_access 5832
Core_0_LLC_pq_forward 0
Core_0_LLC_pq_merged 0
Core_0_LLC_pq_to_cache 5832
Core_0_LLC_pq_full 0

Core_0_LLC_acc_epochs 5280
Core_0_LLC_acc_level_0 5278
Core_0_LLC_acc_level_1 1
Core_0_LLC_acc_level_2 1
Core_0_LLC_acc_level_3 0
Core_0_LLC_acc_level_4 0
Core_0_LLC_acc_level_5 0
Core_0_LLC_acc_level_6 0
Core_0_LLC_acc_level_7 0
Core_0_LLC_acc_level_8 0
Core_0_LLC_acc_level_9 0

Core_0_major_page_fault 0
Core_0_minor_page_fault 221

scooby_st_lookup 5410
scooby_st_hit 5183
scooby_st_evict 163
scooby_st_insert 227
scooby_st_streaming 0

scooby_predict_called 5410
scooby_predict_out_of_bounds 290
scooby_predict_action_1 3448
scooby_predict_issue_action_1 3181
scooby_predict_hit_action_1 267
scooby_predict_out_of_bounds_action_1 62
scooby_predict_action_3 114
scooby_predict_issue_action_3 86
scooby_predict_hit_action_3 28
scooby_predict_out_of_bounds_action_3 5
scooby_predict_action_4 294
scooby_predict_issue_action_4 251
scooby_predict_hit_action_4 43
scooby_predict_out_of_bounds_action_4 10
scooby_predict_action_5 97
scooby_predict_issue_action_5 91
scooby_predict_hit_action_5 6
scooby_predict_out_of_bounds_action_5 2
scooby_predict_action_10 92
scooby_predict_issue_action_10 60
scooby_predict_hit_action_10 32
scooby_predict_out_of_bounds_action_10 21
scooby_predict_action_11 79
scooby_predict_issue_action_11 69
scooby_predict_hit_action_11 10
scooby_predict_out_of_bounds_action_11 11
scooby_predict_action_12 80
scooby_predict_issue_action_12 79
scooby_predict_hit_action_12 1
scooby_predict_out_of_bounds_action_12 14
scooby_predict_action_22 66
scooby_predict_issue_action_22 54
scooby_predict_hit_action_22 12
scooby_predict_out_of_bounds_action_22 42
scooby_predict_action_23 68
scooby_predict_issue_action_23 59
scooby_predict_hit_action_23 9
scooby_predict_out_of_bounds_action_23 24
scooby_predict_action_30 59
scooby_predict_issue_action_30 41
scooby_predict_hit_action_30 18
scooby_predict_out_of_bounds_action_30 37
scooby_predict_action_32 24
scooby_predict_issue_action_32 16
scooby_predict_hit_action_32 8
scooby_predict_out_of_bounds_action_32 44
scooby_predict_action_-1 498
scooby_predict_issue_action_-1 492
scooby_predict_hit_action_-1 6
scooby_predict_out_of_bounds_action_-1 7
scooby_predict_action_-3 201
scooby_predict_issue_action_-3 201
scooby_predict_hit_action_-3 0
scooby_predict_out_of_bounds_action_-3 11
scooby_predict_action_-6 0
scooby_predict_issue_action_-6 0
scooby_predict_hit_action_-6 0
scooby_predict_out_of_bounds_action_-6 0
scooby_predict_action_0 0
scooby_predict_issue_action_0 0
scooby_predict_hit_action_0 0
scooby_predict_out_of_bounds_action_0 0
scooby_predict_multi_deg_called 3667
scooby_predict_predicted 18217
scooby_predict_multi_deg 13537
scooby_predict_multi_deg_2 3527
scooby_predict_multi_deg_3 3014
scooby_predict_multi_deg_4 2930
scooby_predict_multi_deg_5 2067
scooby_predict_multi_deg_6 1999
scooby_predict_multi_deg_7 0
scooby_predict_multi_deg_8 0
scooby_predict_multi_deg_9 0
scooby_predict_multi_deg_10 0
scooby_predict_multi_deg_11 0
scooby_predict_multi_deg_12 0
scooby_predict_multi_deg_13 0
scooby_predict_multi_deg_14 0
scooby_predict_multi_deg_15 0
scooby_predict_multi_deg_16 0

scooby_selected_deg_1 1013
scooby_selected_deg_2 436
scooby_selected_deg_3 0
scooby_selected_deg_4 895
scooby_selected_deg_5 0
scooby_selected_deg_6 2336
scooby_selected_deg_7 0
scooby_selected_deg_8 0
scooby_selected_deg_9 0
scooby_selected_deg_10 0
scooby_selected_deg_11 0
scooby_selected_deg_12 0
scooby_selected_deg_13 0
scooby_selected_deg_14 0
scooby_selected_deg_15 0
scooby_selected_deg_16 0

scooby_state_403083|42|1 32,0,0,0,0,0,0,0,0,0,0,0,0,0,0,32,
scooby_state_403083|24|1 26,0,0,0,0,0,0,0,0,0,0,0,0,0,0,26,
scooby_state_403083|15|1 25,0,0,0,0,0,0,0,0,0,0,0,0,0,0,25,
scooby_state_403083|37|1 24,1,0,0,0,0,0,0,0,0,0,0,0,0,0,25,
scooby_state_403083|40|1 24,1,0,0,0,0,0,0,0,0,0,0,0,0,0,25,
scooby_state_403083|49|1 24,0,0,0,0,0,0,0,0,0,0,0,0,0,0,24,
scooby_state_403083|1|1 24,0,0,0,0,0,0,0,0,0,0,0,0,0,0,24,
scooby_state_403083|38|1 24,0,0,0,0,0,0,0,0,0,0,0,0,0,0,24,
scooby_state_403083|30|1 23,0,0,0,0,0,0,0,0,0,0,0,0,0,0,23,
scooby_state_403083|2|1 22,0,0,0,0,0,0,0,0,0,0,0,0,0,0,22,
scooby_state_403083|17|1 22,0,0,0,0,0,0,0,0,0,0,0,0,0,0,22,
scooby_state_403083|35|1 22,0,0,0,0,0,0,0,0,0,0,0,0,0,0,22,
scooby_state_403083|36|1 22,0,0,0,0,0,0,0,0,0,0,0,0,0,0,22,
scooby_state_403083|39|1 21,1,0,0,0,0,0,0,0,0,0,0,0,0,0,22,
scooby_state_403083|31|1 22,0,0,0,0,0,0,0,0,0,0,0,0,0,0,22,
scooby_state_403083|3|1 22,0,0,0,0,0,0,0,0,0,0,0,0,0,0,22,
scooby_state_403083|57|1 22,0,0,0,0,0,0,0,0,0,0,0,0,0,0,22,
scooby_state_403083|48|1 22,0,0,0,0,0,0,0,0,0,0,0,0,0,0,22,
scooby_state_403083|21|1 22,0,0,0,0,0,0,0,0,0,0,0,0,0,0,22,
scooby_state_403083|9|1 22,0,0,0,0,0,0,0,0,0,0,0,0,0,0,22,
scooby_state_403083|55|1 22,0,0,0,0,0,0,0,0,0,0,0,0,0,0,22,
scooby_state_403083|28|1 22,0,0,0,0,0,0,0,0,0,0,0,0,0,0,22,
scooby_state_403083|44|1 22,0,0,0,0,0,0,0,0,0,0,0,0,0,0,22,
scooby_state_403083|59|1 20,1,0,0,0,0,0,0,0,0,0,0,0,0,0,21,
scooby_state_403083|7|1 21,0,0,0,0,0,0,0,0,0,0,0,0,0,0,21,
scooby_state_403083|41|1 20,0,0,0,0,0,0,0,0,0,0,0,0,0,0,20,
scooby_state_403083|51|1 20,0,0,0,0,0,0,0,0,0,0,0,0,0,0,20,
scooby_state_403083|53|1 20,0,0,0,0,0,0,0,0,0,0,0,0,0,0,20,
scooby_state_403083|13|1 20,0,0,0,0,0,0,0,0,0,0,0,0,0,0,20,
scooby_state_403083|33|1 20,0,0,0,0,0,0,0,0,0,0,0,0,0,0,20,
scooby_state_403083|22|1 20,0,0,0,0,0,0,0,0,0,0,0,0,0,0,20,
scooby_state_403083|43|1 20,0,0,0,0,0,0,0,0,0,0,0,0,0,0,20,
scooby_state_40307e|0|0 19,0,0,0,0,0,0,0,0,0,0,0,0,0,0,19,
scooby_state_403083|12|1 18,1,0,0,0,0,0,0,0,0,0,0,0,0,0,19,
scooby_state_403083|63|1 19,0,0,0,0,0,0,0,0,0,0,0,0,0,0,19,
scooby_state_403083|34|1 19,0,0,0,0,0,0,0,0,0,0,0,0,0,0,19,
scooby_state_403083|8|1 19,0,0,0,0,0,0,0,0,0,0,0,0,0,0,19,
scooby_state_403083|27|1 19,0,0,0,0,0,0,0,0,0,0,0,0,0,0,19,
scooby_state_403083|47|1 19,0,0,0,0,0,0,0,0,0,0,0,0,0,0,19,
scooby_state_403083|6|1 18,0,0,0,0,0,0,0,0,0,0,0,0,0,0,18,
scooby_state_403083|25|1 18,0,0,0,0,0,0,0,0,0,0,0,0,0,0,18,
scooby_state_403083|60|1 18,0,0,0,0,0,0,0,0,0,0,0,0,0,0,18,
scooby_state_403083|11|1 18,0,0,0,0,0,0,0,0,0,0,0,0,0,0,18,
scooby_state_403083|46|1 17,0,0,0,0,0,0,0,0,0,0,0,0,0,0,17,
scooby_state_403083|20|1 17,0,0,0,0,0,0,0,0,0,0,0,0,0,0,17,
scooby_state_403083|45|1 17,0,0,0,0,0,0,0,0,0,0,0,0,0,0,17,
scooby_state_403083|29|1 17,0,0,0,0,0,0,0,0,0,0,0,0,0,0,17,
scooby_state_403083|26|1 17,0,0,0,0,0,0,0,0,0,0,0,0,0,0,17,
scooby_state_403083|54|1 17,0,0,0,0,0,0,0,0,0,0,0,0,0,0,17,
scooby_state_403083|58|1 17,0,0,0,0,0,0,0,0,0,0,0,0,0,0,17,
scooby_state_403083|10|1 17,0,0,0,0,0,0,0,0,0,0,0,0,0,0,17,
scooby_state_403083|4|1 17,0,0,0,0,0,0,0,0,0,0,0,0,0,0,17,
scooby_state_403083|23|1 16,0,0,0,0,0,0,0,0,0,0,0,0,0,0,16,
scooby_state_403083|52|1 16,0,0,0,0,0,0,0,0,0,0,0,0,0,0,16,
scooby_state_403083|5|1 16,0,0,0,0,0,0,0,0,0,0,0,0,0,0,16,
scooby_state_403083|16|1 16,0,0,0,0,0,0,0,0,0,0,0,0,0,0,16,
scooby_state_403083|56|1 16,0,0,0,0,0,0,0,0,0,0,0,0,0,0,16,
scooby_state_403083|50|1 16,0,0,0,0,0,0,0,0,0,0,0,0,0,0,16,
scooby_state_402dc3|61|0 15,0,0,0,0,0,0,0,0,0,0,0,0,0,0,15,
scooby_state_403083|19|1 15,0,0,0,0,0,0,0,0,0,0,0,0,0,0,15,
scooby_state_403083|32|1 15,0,0,0,0,0,0,0,0,0,0,0,0,0,0,15,
scooby_state_402dc3|27|-4 14,0,0,0,0,0,0,0,0,0,0,0,0,0,0,14,
scooby_state_402dc3|7|-4 14,0,0,0,0,0,0,0,0,0,0,0,0,0,0,14,
scooby_state_402dc3|47|-4 14,0,0,0,0,0,0,0,0,0,0,0,0,0,0,14,
scooby_state_402dc3|10|-4 14,0,0,0,0,0,0,0,0,0,0,0,0,0,0,14,
scooby_state_402dc3|20|-4 14,0,0,0,0,0,0,0,0,0,0,0,0,0,0,14,
scooby_state_402dc3|34|-4 14,0,0,0,0,0,0,0,0,0,0,0,0,0,0,14,
scooby_state_402dc3|0|-4 14,0,0,0,0,0,0,0,0,0,0,0,0,0,0,14,
scooby_state_402dc3|44|-4 14,0,0,0,0,0,0,0,0,0,0,0,0,0,0,14,
scooby_state_402dc3|57|-4 14,0,0,0,0,0,0,0,0,0,0,0,0,0,0,14,
scooby_state_402dc3|54|-4 14,0,0,0,0,0,0,0,0,0,0,0,0,0,0,14,
scooby_state_402dc3|17|-4 14,0,0,0,0,0,0,0,0,0,0,0,0,0,0,14,
scooby_state_402dc3|30|-4 14,0,0,0,0,0,0,0,0,0,0,0,0,0,0,14,
scooby_state_403083|61|1 14,0,0,0,0,0,0,0,0,0,0,0,0,0,0,14,
scooby_state_402dc3|37|-4 14,0,0,0,0,0,0,0,0,0,0,0,0,0,0,14,
scooby_state_402dc3|40|-4 14,0,0,0,0,0,0,0,0,0,0,0,0,0,0,14,
scooby_state_402dc3|3|-4 14,0,0,0,0,0,0,0,0,0,0,0,0,0,0,14,
scooby_state_403083|62|1 13,0,0,0,0,0,0,0,0,0,0,0,0,0,0,13,
scooby_state_403012|40|-2 0,0,13,0,0,0,0,0,0,0,0,0,0,0,0,13,
scooby_state_402dc3|24|-4 13,0,0,0,0,0,0,0,0,0,0,0,0,0,0,13,
scooby_state_402dc3|50|-4 13,0,0,0,0,0,0,0,0,0,0,0,0,0,0,13,
scooby_state_402dc3|13|-4 13,0,0,0,0,0,0,0,0,0,0,0,0,0,0,13,
scooby_state_402dc3|51|-4 13,0,0,0,0,0,0,0,0,0,0,0,0,0,0,13,
scooby_state_403083|18|1 13,0,0,0,0,0,0,0,0,0,0,0,0,0,0,13,
scooby_state_402dfb|63|0 10,0,0,0,0,0,0,0,0,0,0,2,0,0,0,12,
scooby_state_402dcb|31|1 0,0,1,3,2,0,0,0,0,0,0,0,6,0,0,12,
scooby_state_40307e|38|1 12,0,0,0,0,0,0,0,0,0,0,0,0,0,0,12,
scooby_state_402dcb|48|1 0,1,2,2,1,0,0,0,0,0,0,0,6,0,0,12,
scooby_state_402dcb|21|1 0,0,2,2,2,0,0,0,0,0,0,0,6,0,0,12,
scooby_state_402dcb|41|1 0,0,1,2,2,1,0,0,0,0,0,0,6,0,0,12,
scooby_state_402dc3|23|-4 12,0,0,0,0,0,0,0,0,0,0,0,0,0,0,12,
scooby_state_402dcb|11|1 0,1,2,2,1,0,0,0,0,0,0,0,6,0,0,12,
scooby_state_402dcb|58|1 0,0,2,2,2,0,0,0,0,0,0,0,6,0,0,12,
scooby_state_402dcb|38|1 0,1,3,2,0,0,0,0,0,0,0,0,6,0,0,12,
scooby_state_402dcb|4|1 0,0,1,2,3,0,0,0,0,0,0,0,6,0,0,12,
scooby_state_402dcb|14|1 0,0,0,2,3,1,0,0,0,0,0,0,6,0,0,12,
scooby_state_402dcb|55|1 1,2,2,1,0,0,0,0,0,0,0,0,6,0,0,12,
scooby_state_402dc3|41|-4 12,0,0,0,0,0,0,0,0,0,0,0,0,0,0,12,
scooby_state_402dc3|33|-4 12,0,0,0,0,0,0,0,0,0,0,0,0,0,0,12,
scooby_state_402dcb|28|1 0,2,2,2,0,0,0,0,0,0,0,0,6,0,0,12,
scooby_state_402dcb|18|1 1,2,2,1,0,0,0,0,0,0,0,0,6,0,0,12,
scooby_state_402dcb|45|1 1,3,2,0,0,0,0,0,0,0,0,0,6,0,0,12,
scooby_state_402dcb|51|1 0,0,0,2,3,1,0,0,0,0,0,0,6,0,0,12,
scooby_state_402dcb|61|1 0,0,0,1,3,2,0,0,0,0,0,0,6,0,0,12,
scooby_state_402dcb|1|1 0,2,2,2,0,0,0,0,0,0,0,0,6,0,0,12,
scooby_state_402dcb|24|1 0,0,0,2,2,2,0,0,0,0,0,0,6,0,0,12,
scooby_state_402dcb|34|1 0,0,0,1,2,2,1,0,0,0,0,0,6,0,0,12,
scooby_state_402dc3|14|-4 12,0,0,0,0,0,0,0,0,0,0,0,0,0,0,12,
scooby_state_402dc3|63|0 11,0,0,0,0,0,0,0,0,0,0,0,0,0,0,11,
scooby_state_402dc3|43|-4 11,0,0,0,0,0,0,0,0,0,0,0,0,0,0,11,
scooby_state_402dcb|62|1 2,2,1,0,0,0,0,0,0,0,0,0,6,0,0,11,
scooby_state_402dcb|8|1 1,2,2,0,0,0,0,0,0,0,0,0,6,0,0,11,
scooby_state_402dcb|7|1 0,0,0,0,3,2,1,0,0,0,0,0,5,0,0,11,
scooby_state_402dc3|6|-4 11,0,0,0,0,0,0,0,0,0,0,0,0,0,0,11,
scooby_state_402dc3|58|-4 11,0,0,0,0,0,0,0,0,0,0,0,0,0,0,11,
scooby_state_402dc3|4|-4 11,0,0,0,0,0,0,0,0,0,0,0,0,0,0,11,
scooby_state_402dcb|35|1 1,2,2,0,0,0,0,0,0,0,0,0,6,0,0,11,
scooby_state_402dc3|31|-4 11,0,0,0,0,0,0,0,0,0,0,0,0,0,0,11,
scooby_state_402dcb|44|1 0,0,0,0,2,3,1,0,0,0,0,0,5,0,0,11,
scooby_state_40307e|1|0 11,0,0,0,0,0,0,0,0,0,0,0,0,0,0,11,
scooby_state_402dcb|27|1 0,0,0,0,1,2,2,1,0,0,0,0,4,0,0,10,
scooby_state_402dc3|16|-4 10,0,0,0,0,0,0,0,0,0,0,0,0,0,0,10,
scooby_state_402dc3|53|-4 10,0,0,0,0,0,0,0,0,0,0,0,0,0,0,10,
scooby_state_402dcb|17|1 0,0,0,0,2,2,2,0,0,0,0,0,4,0,0,10,
scooby_state_402dcb|54|1 0,0,0,0,2,2,2,0,0,0,0,0,4,0,0,10,
scooby_state_402dc3|48|-4 10,0,0,0,0,0,0,0,0,0,0,0,0,0,0,10,
scooby_state_402dc3|26|-4 10,0,0,0,0,0,0,0,0,0,0,0,0,0,0,10,
scooby_state_40307e|2|1 10,0,0,0,0,0,0,0,0,0,0,0,0,0,0,10,
scooby_state_402dc3|21|-4 10,0,0,0,0,0,0,0,0,0,0,0,0,0,0,10,
scooby_state_402dcb|25|1 1,2,1,0,0,0,0,0,0,0,0,0,6,0,0,10,
scooby_state_402dcb|52|1 2,2,0,0,0,0,0,0,0,0,0,0,6,0,0,10,
scooby_state_403083|0|0 10,0,0,0,0,0,0,0,0,0,0,0,0,0,0,10,
scooby_state_403083|14|1 10,0,0,0,0,0,0,0,0,0,0,0,0,0,0,10,
scooby_state_402dcb|37|1 0,0,0,0,0,2,3,1,0,0,0,0,3,0,0,9,
scooby_state_402dcb|15|1 1,2,0,0,0,0,0,0,0,0,0,1,5,0,0,9,
scooby_state_40307e|12|1 9,0,0,0,0,0,0,0,0,0,0,0,0,0,0,9,
scooby_state_402dc3|11|-4 9,0,0,0,0,0,0,0,0,0,0,0,0,0,0,9,
scooby_state_402dc3|38|-4 9,0,0,0,0,0,0,0,0,0,0,0,0,0,0,9,
scooby_state_402dcb|5|1 2,1,0,0,0,0,0,0,0,0,0,2,4,0,0,9,
scooby_state_40307e|41|0 9,0,0,0,0,0,0,0,0,0,0,0,0,0,0,9,
scooby_state_402dcb|42|1 1,2,0,0,0,0,0,0,0,0,0,1,5,0,0,9,
scooby_state_402dc3|1|-4 9,0,0,0,0,0,0,0,0,0,0,0,0,0,0,9,
scooby_state_402dc3|36|-4 9,0,0,0,0,0,0,0,0,0,0,0,0,0,0,9,
scooby_state_402dc3|59|-4 8,0,0,0,0,0,0,0,0,0,0,0,0,0,0,8,
scooby_state_40307e|48|1 8,0,0,0,0,0,0,0,0,0,0,0,0,0,0,8,
scooby_state_402dcb|47|1 0,0,0,0,0,2,2,2,0,0,0,0,2,0,0,8,
scooby_state_402dc3|28|-4 8,0,0,0,0,0,0,0,0,0,0,0,0,0,0,8,
scooby_state_402dc3|46|-4 8,0,0,0,0,0,0,0,0,0,0,0,0,0,0,8,
scooby_state_402dc3|9|-4 8,0,0,0,0,0,0,0,0,0,0,0,0,0,0,8,
scooby_state_40307e|20|1 8,0,0,0,0,0,0,0,0,0,0,0,0,0,0,8,
scooby_state_402dcb|10|1 0,0,0,0,0,2,2,2,0,0,0,0,2,0,0,8,
scooby_state_40307e|56|1 8,0,0,0,0,0,0,0,0,0,0,0,0,0,0,8,
scooby_state_40307e|36|1 8,0,0,0,0,0,0,0,0,0,0,0,0,0,0,8,
scooby_state_402dcb|32|1 1,1,0,0,0,0,0,0,0,0,0,2,4,0,0,8,
scooby_state_402dc3|55|-4 8,0,0,0,0,0,0,0,0,0,0,0,0,0,0,8,
scooby_state_402dc3|60|-3 8,0,0,0,0,0,0,0,0,0,0,0,0,0,0,8,
scooby_state_402dcb|59|1 2,0,0,0,0,0,0,0,0,0,0,2,4,0,0,8,
scooby_state_402dc3|62|0 8,0,0,0,0,0,0,0,0,0,0,0,0,0,0,8,
scooby_state_402dc3|5|-4 7,0,0,0,0,0,0,0,0,0,0,0,0,0,0,7,
scooby_state_402dc3|32|-4 7,0,0,0,0,0,0,0,0,0,0,0,0,0,0,7,
scooby_state_40307e|58|1 7,0,0,0,0,0,0,0,0,0,0,0,0,0,0,7,
scooby_state_402dc3|8|-4 7,0,0,0,0,0,0,0,0,0,0,0,0,0,0,7,
scooby_state_402dfb|51|-2 1,0,1,0,0,1,0,0,0,0,1,3,0,0,0,7,
scooby_state_402dfb|38|-2 0,1,0,1,0,1,0,0,0,0,1,3,0,0,0,7,
scooby_state_402dfb|22|-2 0,1,0,0,1,0,1,0,1,0,0,3,0,0,0,7,
scooby_state_402dfb|20|-1 1,0,1,0,0,1,0,0,0,1,0,3,0,0,0,7,
scooby_state_402dfb|23|-2 1,0,0,1,0,1,0,1,0,0,0,3,0,0,0,7,
scooby_state_402dcb|22|1 1,0,0,0,0,0,0,0,0,0,1,2,3,0,0,7,
scooby_state_402dfb|7|-1 1,0,1,0,0,1,0,0,0,1,0,3,0,0,0,7,
scooby_state_402dc3|25|-4 7,0,0,0,0,0,0,0,0,0,0,0,0,0,0,7,
scooby_state_402dcb|0|-3 0,2,3,0,0,0,0,0,0,0,0,0,2,0,0,7,
scooby_state_40307e|28|1 7,0,0,0,0,0,0,0,0,0,0,0,0,0,0,7,
scooby_state_402dfb|25|-2 0,1,0,1,0,1,0,0,0,0,1,3,0,0,0,7,
scooby_state_402dcb|20|1 0,0,0,0,0,1,2,3,0,0,0,0,1,0,0,7,
scooby_state_40307e|54|1 7,0,0,0,0,0,0,0,0,0,0,0,0,0,0,7,
scooby_state_40307e|9|1 7,0,0,0,0,0,0,0,0,0,0,0,0,0,0,7,
scooby_state_40307e|46|1 7,0,0,0,0,0,0,0,0,0,0,0,0,0,0,7,
scooby_state_402dc3|18|-4 7,0,0,0,0,0,0,0,0,0,0,0,0,0,0,7,
scooby_state_402dfb|0|-2 1,0,1,0,0,1,0,0,0,1,0,3,0,0,0,7,
scooby_state_402dcb|49|1 1,0,0,0,0,0,0,0,0,0,1,2,3,0,0,7,
scooby_state_402dfb|42|-1 0,1,0,1,0,1,0,0,1,0,0,3,0,0,0,7,
scooby_state_402dfb|17|-1 1,0,0,1,0,1,0,1,0,0,0,3,0,0,0,7,
scooby_state_402dfb|13|-2 1,0,1,0,0,1,0,0,0,1,0,3,0,0,0,7,
scooby_state_402dc3|12|-4 7,0,0,0,0,0,0,0,0,0,0,0,0,0,0,7,
scooby_state_40307e|18|1 7,0,0,0,0,0,0,0,0,0,0,0,0,0,0,7,
scooby_state_40307e|10|1 7,0,0,0,0,0,0,0,0,0,0,0,0,0,0,7,
scooby_state_402dc3|15|-4 7,0,0,0,0,0,0,0,0,0,0,0,0,0,0,7,
scooby_state_40307e|4|0 6,0,0,1,0,0,0,0,0,0,0,0,0,0,0,7,
scooby_state_402dfb|35|-2 0,1,0,0,1,1,0,0,1,0,0,3,0,0,0,7,
scooby_state_402dfb|32|-1 0,1,0,1,0,1,0,0,0,0,0,4,0,0,0,7,
scooby_state_402dc3|29|-4 7,0,0,0,0,0,0,0,0,0,0,0,0,0,0,7,
scooby_state_402dfb|61|-2 1,0,0,1,0,1,0,0,1,0,0,3,0,0,0,7,
scooby_state_402dc3|49|-4 7,0,0,0,0,0,0,0,0,0,0,0,0,0,0,7,
scooby_state_402dfb|55|-1 1,0,0,1,0,1,0,0,1,0,0,3,0,0,0,7,
scooby_state_402dfb|45|-1 1,0,1,0,0,1,0,0,0,0,0,4,0,0,0,7,
scooby_state_402dc3|22|-4 7,0,0,0,0,0,0,0,0,0,0,0,0,0,0,7,
scooby_state_402dfb|58|-1 1,0,1,0,0,1,0,0,0,0,0,4,0,0,0,7,
scooby_state_402dfb|48|-2 1,0,0,1,0,1,0,0,1,0,0,3,0,0,0,7,
scooby_state_402dc3|52|-4 7,0,0,0,0,0,0,0,0,0,0,0,0,0,0,7,
scooby_state_402dc3|19|-4 7,0,0,0,0,0,0,0,0,0,0,0,0,0,0,7,
scooby_state_402dcb|57|1 0,0,0,0,0,1,2,2,1,0,0,0,1,0,0,7,
scooby_state_40307e|16|1 7,0,0,0,0,0,0,0,0,0,0,0,0,0,0,7,
scooby_state_402dc3|39|-4 7,0,0,0,0,0,0,0,0,0,0,0,0,0,0,7,
scooby_state_402dc3|35|-4 7,0,0,0,0,0,0,0,0,0,0,0,0,0,0,7,
scooby_state_402dcb|30|1 0,0,0,0,0,0,2,3,1,0,0,0,1,0,0,7,
scooby_state_402dc3|42|-4 7,0,0,0,0,0,0,0,0,0,0,0,0,0,0,7,
scooby_state_402dfb|4|-1 1,0,0,1,0,1,0,0,1,0,0,3,0,0,0,7,
scooby_state_402dfb|10|-2 1,0,0,1,0,1,0,1,0,0,0,3,0,0,0,7,
scooby_state_402dc3|45|-4 7,0,0,0,0,0,0,0,0,0,0,0,0,0,0,7,
scooby_state_402dfb|29|-1 0,1,0,0,1,1,0,0,1,0,0,3,0,0,0,7,
scooby_state_402dc3|2|-4 7,0,0,0,0,0,0,0,0,0,0,0,0,0,0,7,
scooby_state_402dfb|19|-1 0,1,0,1,0,0,1,0,0,0,0,4,0,0,0,7,
scooby_state_40307e|2|0 7,0,0,0,0,0,0,0,0,0,0,0,0,0,0,7,
scooby_state_402dc3|56|-4 7,0,0,0,0,0,0,0,0,0,0,0,0,0,0,7,
scooby_state_402dfb|30|-1 0,0,0,1,1,0,0,1,0,0,0,3,0,0,0,6,
scooby_state_40307e|11|1 6,0,0,0,0,0,0,0,0,0,0,0,0,0,0,6,
scooby_state_402dfb|50|-1 1,0,0,0,0,1,0,0,1,0,0,3,0,0,0,6,
scooby_state_402dfb|62|0 4,0,0,0,0,0,0,0,0,0,0,2,0,0,0,6,
scooby_state_40307e|53|1 6,0,0,0,0,0,0,0,0,0,0,0,0,0,0,6,
scooby_state_402dc0|32|-1 0,0,1,0,0,1,0,0,1,0,0,3,0,0,0,6,
scooby_state_402dfb|37|-1 0,1,0,0,0,1,0,0,1,0,0,3,0,0,0,6,
scooby_state_402dfb|14|-2 0,1,0,0,1,0,0,0,1,0,0,3,0,0,0,6,
scooby_state_402dc0|13|-1 1,0,0,1,0,0,1,0,0,1,0,2,0,0,0,6,
scooby_state_40307e|1|1 6,0,0,0,0,0,0,0,0,0,0,0,0,0,0,6,
scooby_state_402dc0|29|-1 0,0,1,0,0,1,0,0,1,0,0,3,0,0,0,6,
scooby_state_402dc0|9|-1 1,0,0,1,0,0,1,0,0,1,0,2,0,0,0,6,
scooby_state_402dfb|36|-2 0,0,0,1,1,0,0,1,0,0,0,3,0,0,0,6,
scooby_state_402dc0|38|-1 0,0,1,0,0,1,0,0,1,0,0,3,0,0,0,6,
scooby_state_402dfb|34|-1 0,1,0,0,1,0,0,0,1,0,0,3,0,0,0,6,
scooby_state_402dfb|47|-2 0,1,0,0,1,0,1,0,0,1,0,2,0,0,0,6,
scooby_state_402dc3|60|0 6,0,0,0,0,0,0,0,0,0,0,0,0,0,0,6,
scooby_state_402dcb|33|1 0,0,0,0,0,0,0,2,2,2,0,0,0,0,0,6,
scooby_state_402dfb|27|-2 0,1,0,0,1,0,0,0,1,0,0,3,0,0,0,6,
scooby_state_402dcb|40|1 0,0,0,0,0,0,2,2,2,0,0,0,0,0,0,6,
scooby_state_40307e|55|1 6,0,0,0,0,0,0,0,0,0,0,0,0,0,0,6,
scooby_state_402dcb|46|1 0,0,0,0,0,0,0,0,0,2,2,2,0,0,0,6,
scooby_state_402dfb|56|-2 1,0,0,0,0,1,0,0,1,0,1,2,0,0,0,6,
scooby_state_402dfb|8|-1 0,1,0,0,1,0,0,0,1,0,0,3,0,0,0,6,
scooby_state_402dcb|19|1 0,0,0,0,0,0,0,0,0,2,2,2,0,0,0,6,
scooby_state_40307e|17|1 6,0,0,0,0,0,0,0,0,0,0,0,0,0,0,6,
scooby_state_40307e|44|1 6,0,0,0,0,0,0,0,0,0,0,0,0,0,0,6,
scooby_state_402dc0|10|-1 1,0,0,1,0,0,1,0,0,1,0,2,0,0,0,6,
scooby_state_402dfb|28|-1 0,0,1,0,1,0,1,0,0,1,0,2,0,0,0,6,
scooby_state_402dc0|53|-1 0,1,0,0,1,0,0,1,0,0,1,2,0,0,0,6,
scooby_state_402dfb|50|-2 0,1,0,1,0,0,1,0,0,0,0,3,0,0,0,6,
scooby_state_402dcb|6|1 0,0,0,0,0,0,0,2,2,2,0,0,0,0,0,6,
scooby_state_402dcb|63|1 0,0,0,0,0,0,0,0,2,2,1,1,0,0,0,6,
scooby_state_402dfb|33|-2 0,0,0,1,0,1,0,1,0,0,1,2,0,0,0,6,
scooby_state_402dfb|12|-2 0,1,0,1,0,0,1,0,0,0,1,2,0,0,0,6,
scooby_state_40307e|14|1 6,0,0,0,0,0,0,0,0,0,0,0,0,0,0,6,
scooby_state_402dc0|55|-1 0,1,0,0,1,0,0,1,0,0,1,2,0,0,0,6,
scooby_state_402dcb|26|1 0,0,0,0,0,0,0,0,2,2,2,0,0,0,0,6,
scooby_state_402dc0|52|-1 0,1,0,0,1,0,0,1,0,0,1,2,0,0,0,6,
scooby_state_402dfb|22|-1 1,0,0,1,0,0,0,1,0,0,0,3,0,0,0,6,
scooby_state_402dc0|51|-1 0,1,0,0,1,0,0,1,0,0,1,2,0,0,0,6,
scooby_state_402dfb|1|-2 0,1,0,0,1,0,0,0,0,1,0,3,0,0,0,6,
scooby_state_402dc0|8|-1 1,0,0,1,0,0,1,0,0,1,0,2,0,0,0,6,
scooby_state_402dfb|26|-2 0,0,1,0,0,1,0,0,0,1,0,3,0,0,0,6,
scooby_state_402dc0|54|-1 0,1,0,0,1,0,0,1,0,0,1,2,0,0,0,6,
scooby_state_402dfb|9|-2 0,1,0,0,1,0,1,0,1,0,0,2,0,0,0,6,
scooby_state_40307e|34|1 6,0,0,0,0,0,0,0,0,0,0,0,0,0,0,6,
scooby_state_40307e|40|1 6,0,0,0,0,0,0,0,0,0,0,0,0,0,0,6,
scooby_state_402dfb|27|-1 0,0,0,1,0,1,0,1,0,0,0,3,0,0,0,6,
scooby_state_402dfb|46|-1 0,1,0,0,1,0,0,0,0,1,0,3,0,0,0,6,
scooby_state_402dfb|59|-2 0,0,1,0,0,1,0,1,0,0,1,2,0,0,0,6,
scooby_state_402dcb|60|1 0,0,0,0,0,0,0,2,2,2,0,0,0,0,0,6,
scooby_state_402dc0|63|0 4,0,0,0,0,0,0,0,0,0,0,2,0,0,0,6,
scooby_state_40307e|47|1 6,0,0,0,0,0,0,0,0,0,0,0,0,0,0,6,
scooby_state_402dcb|16|1 0,0,0,0,0,0,0,1,2,2,1,0,0,0,0,6,
scooby_state_402dfb|21|-2 0,0,1,0,0,1,0,1,0,1,0,2,0,0,0,6,
scooby_state_402dfb|31|-1 0,0,1,0,1,0,1,0,0,0,0,3,0,0,0,6,
scooby_state_402dcb|23|1 0,0,0,0,0,0,0,3,2,1,0,0,0,0,0,6,
scooby_state_402dfb|5|-1 0,0,1,0,1,0,0,1,0,0,0,3,0,0,0,6,
scooby_state_402dfb|34|-2 0,0,1,0,1,0,1,0,0,1,0,2,0,0,0,6,
scooby_state_40307e|29|1 6,0,0,0,0,0,0,0,0,0,0,0,0,0,0,6,
scooby_state_402dc0|7|-1 1,0,0,1,0,0,1,0,0,1,0,2,0,0,0,6,
scooby_state_402dc0|50|-1 0,1,0,0,1,0,0,1,0,0,1,2,0,0,0,6,
scooby_state_402dfb|24|-2 0,0,1,0,1,0,1,0,0,0,0,3,0,0,0,6,
scooby_state_402dc0|27|-1 0,0,1,0,0,1,0,0,1,0,0,3,0,0,0,6,
scooby_state_402dfb|40|-2 0,1,0,0,1,0,0,0,1,0,0,3,0,0,0,6,
scooby_state_402dc0|1|-1 1,0,0,1,0,0,1,0,0,1,0,2,0,0,0,6,
scooby_state_402dfb|49|-2 0,0,1,0,1,0,0,1,0,0,0,3,0,0,0,6,
scooby_state_402dc0|60|-1 0,1,0,0,1,0,0,1,0,1,0,2,0,0,0,6,
scooby_state_402dfb|15|-1 0,0,1,0,0,1,0,1,0,1,0,2,0,0,0,6,
scooby_state_402dfb|37|-2 0,0,1,0,1,0,1,0,0,0,0,3,0,0,0,6,
scooby_state_402dfb|20|-2 0,0,0,1,0,0,1,1,0,0,1,2,0,0,0,6,
scooby_state_402dc0|6|-1 1,0,0,1,0,0,1,0,0,1,0,2,0,0,0,6,
scooby_state_402dc0|49|-1 0,1,0,0,1,0,0,1,0,0,1,2,0,0,0,6,
scooby_state_402dfb|2|-1 0,0,1,0,0,1,0,1,0,1,0,2,0,0,0,6,
scooby_state_402dfb|60|-1 1,0,0,0,0,0,0,0,1,0,1,2,1,0,0,6,
scooby_state_402dfb|59|-1 0,1,0,0,1,0,0,0,0,1,0,3,0,0,0,6,
scooby_state_402dcb|36|1 0,0,0,0,0,0,0,0,1,2,2,1,0,0,0,6,
scooby_state_402dc0|37|-1 0,0,1,0,0,1,0,0,1,0,0,3,0,0,0,6,
scooby_state_402dc0|62|-1 0,1,0,0,1,0,1,0,0,1,0,2,0,0,0,6,
scooby_state_402dfb|3|-1 0,1,0,0,1,0,1,0,1,0,0,2,0,0,0,6,
scooby_state_402dc0|34|-1 0,0,1,0,0,1,0,0,1,0,0,3,0,0,0,6,
scooby_state_402dfb|30|-2 0,1,0,0,0,1,0,0,1,0,1,2,0,0,0,6,
scooby_state_402dfb|54|-1 0,1,0,0,1,0,1,0,0,1,0,2,0,0,0,6,
scooby_state_402dc0|0|-1 1,0,0,1,0,0,1,0,0,1,0,2,0,0,0,6,
scooby_state_402dfb|6|-1 0,1,0,1,0,0,1,0,0,0,0,3,0,0,0,6,
scooby_state_402dc0|47|-1 0,1,0,0,1,0,0,1,0,0,1,2,0,0,0,6,
scooby_state_402dc0|23|-1 0,0,1,0,0,1,0,0,1,0,0,3,0,0,0,6,
scooby_state_402dfb|43|-2 0,1,0,0,0,1,0,0,1,0,1,2,0,0,0,6,
scooby_state_402dcb|12|1 0,0,0,0,0,0,0,0,0,0,2,2,2,0,0,6,
scooby_state_402dfb|18|-2 1,0,0,0,0,1,0,1,0,1,0,2,0,0,0,6,
scooby_state_402dc0|41|-1 0,0,1,0,1,0,0,1,0,0,1,2,0,0,0,6,
scooby_state_402dfb|53|-2 1,0,0,1,0,0,0,0,1,0,0,3,0,0,0,6,
scooby_state_402dc0|28|-1 0,0,1,0,0,1,0,0,1,0,0,3,0,0,0,6,
scooby_state_402dfb|16|-1 0,1,0,0,1,0,1,0,1,0,1,1,0,0,0,6,
scooby_state_402dc0|42|-1 0,0,1,0,1,0,0,1,0,0,1,2,0,0,0,6,
scooby_state_402dfb|33|-1 0,0,1,0,1,0,0,0,0,1,0,3,0,0,0,6,
scooby_state_402dc0|4|-1 1,0,0,1,0,0,1,0,0,1,0,2,0,0,0,6,
scooby_state_402dcb|39|1 0,0,0,0,0,0,0,0,0,0,2,2,2,0,0,6,
scooby_state_402dc0|24|-1 0,0,1,0,0,1,0,0,1,0,0,3,0,0,0,6,
scooby_state_402dc0|40|-1 0,0,1,0,1,0,0,1,0,0,1,2,0,0,0,6,
scooby_state_402dcb|53|1 0,0,0,0,0,0,0,0,2,2,2,0,0,0,0,6,
scooby_state_402dfb|39|-2 0,0,1,0,1,0,0,0,0,1,0,3,0,0,0,6,
scooby_state_402dc0|30|-1 0,0,1,0,0,1,0,0,1,0,0,3,0,0,0,6,
scooby_state_402dc0|58|-1 0,1,0,0,1,0,0,1,0,0,1,2,0,0,0,6,
scooby_state_402dfb|53|-1 0,0,1,0,0,1,0,1,0,0,0,3,0,0,0,6,
scooby_state_402dc0|43|-1 0,1,0,0,1,0,0,1,0,0,1,2,0,0,0,6,
scooby_state_402dcb|9|1 0,0,0,0,0,0,0,0,1,2,2,1,0,0,0,6,
scooby_state_402dfb|44|-1 0,0,1,1,0,0,1,0,0,0,0,3,0,0,0,6,
scooby_state_402dc0|45|-1 0,1,0,0,1,0,0,1,0,0,1,2,0,0,0,6,
scooby_state_402dcb|2|1 0,0,0,0,0,0,0,0,0,1,2,2,1,0,0,6,
scooby_state_402dc0|35|-1 0,0,1,0,0,1,0,0,1,0,0,3,0,0,0,6,
scooby_state_402dfb|12|-1 1,0,0,0,0,1,0,1,0,1,0,2,0,0,0,6,
scooby_state_402dfb|47|-1 1,0,0,1,0,0,0,0,1,0,0,3,0,0,0,6,
scooby_state_402dc0|12|-1 1,0,0,1,0,0,1,0,0,1,0,2,0,0,0,6,
scooby_state_402dc0|3|-1 1,0,0,1,0,0,1,0,0,1,0,2,0,0,0,6,
scooby_state_402dfb|18|-1 0,0,1,0,1,0,0,1,0,0,0,3,0,0,0,6,
scooby_state_402dcb|13|1 0,0,0,0,0,0,1,3,2,0,0,0,0,0,0,6,
scooby_state_40307e|26|1 6,0,0,0,0,0,0,0,0,0,0,0,0,0,0,6,
scooby_state_402dfb|24|-1 0,1,0,0,0,1,0,0,1,0,0,3,0,0,0,6,
scooby_state_402dfb|41|-1 0,0,1,0,1,0,1,0,0,1,0,2,0,0,0,6,
scooby_state_402dfb|21|-1 0,1,0,0,1,0,0,0,1,0,0,3,0,0,0,6,
scooby_state_402dfb|17|-2 0,1,0,0,0,0,1,0,1,0,1,2,0,0,0,6,
scooby_state_402dc0|25|-1 0,0,1,0,0,1,0,0,1,0,0,3,0,0,0,6,
scooby_state_402dc0|11|-1 1,0,0,1,0,0,1,0,0,1,0,2,0,0,0,6,
scooby_state_402dc0|59|-1 0,1,0,0,1,0,0,1,0,1,0,2,0,0,0,6,
scooby_state_402dc0|36|-1 0,0,1,0,0,1,0,0,1,0,0,3,0,0,0,6,
scooby_state_402dc0|39|-1 0,0,1,0,1,0,0,0,1,0,0,3,0,0,0,6,
scooby_state_402dfb|9|-1 1,0,0,1,0,0,0,1,0,0,0,3,0,0,0,6,
scooby_state_402dfb|56|-1 0,0,1,0,1,0,0,1,0,0,0,3,0,0,0,6,
scooby_state_402dcb|43|1 0,0,0,0,0,0,0,1,2,2,1,0,0,0,0,6,
scooby_state_402dc0|44|-1 0,1,0,0,1,0,0,1,0,0,1,2,0,0,0,6,
scooby_state_402dc0|22|-1 0,0,1,0,0,1,0,0,1,0,0,3,0,0,0,6,
scooby_state_402dc0|33|-1 1,0,1,0,0,0,0,0,1,0,0,3,0,0,0,6,
scooby_state_402dfb|52|-2 0,1,0,0,1,0,0,0,0,1,0,3,0,0,0,6,
scooby_state_402dc0|48|-1 0,1,0,0,1,0,0,1,0,0,1,2,0,0,0,6,
scooby_state_402dfb|40|-1 0,0,1,0,0,1,0,1,0,0,0,3,0,0,0,6,
scooby_state_402dfb|15|-2 1,0,0,1,0,0,0,1,0,0,1,2,0,0,0,6,
scooby_state_40307e|45|1 6,0,0,0,0,0,0,0,0,0,0,0,0,0,0,6,
scooby_state_402dfb|57|-1 0,1,0,1,0,0,1,0,0,0,0,2,1,0,0,6,
scooby_state_40307e|50|1 6,0,0,0,0,0,0,0,0,0,0,0,0,0,0,6,
scooby_state_402dcb|50|1 0,0,0,0,0,0,1,2,2,1,0,0,0,0,0,6,
scooby_state_402dfb|8|-2 0,0,1,0,0,1,0,1,0,1,0,2,0,0,0,6,
scooby_state_402dfb|11|-2 0,0,1,0,1,0,0,1,0,0,0,3,0,0,0,6,
scooby_state_402dfb|60|-2 0,1,0,0,1,0,1,0,0,1,0,2,0,0,0,6,
scooby_state_402dc0|5|-1 1,0,0,1,0,0,1,0,0,1,0,2,0,0,0,6,
scooby_state_402dfb|46|-2 0,0,1,0,0,1,0,1,0,0,1,2,0,0,0,6,
scooby_state_402dc0|14|-1 1,0,0,1,0,0,1,0,0,1,0,2,0,0,0,6,
scooby_state_402dcb|3|1 0,0,0,0,0,0,2,2,2,0,0,0,0,0,0,6,
scooby_state_402dfb|2|-2 1,1,0,1,0,0,0,0,1,0,0,2,0,0,0,6,
scooby_state_402dcb|29|1 0,0,0,0,0,0,0,0,0,1,2,2,1,0,0,6,
scooby_state_402dc0|31|-1 0,0,1,0,0,1,0,0,1,0,0,3,0,0,0,6,
scooby_state_402dc0|56|-1 0,1,0,0,1,0,0,1,0,0,1,2,0,0,0,6,
scooby_state_402dcb|56|1 0,0,0,0,0,0,0,0,0,1,2,2,1,0,0,6,
scooby_state_402dc0|57|-1 0,1,0,0,1,0,0,1,0,0,1,2,0,0,0,6,
scooby_state_402dc0|61|-1 0,1,0,0,1,0,1,0,0,1,0,2,0,0,0,6,
scooby_state_402dfb|5|-2 1,0,0,0,0,1,0,0,1,1,0,2,0,0,0,6,
scooby_state_402dfb|43|-1 0,0,1,0,1,0,0,1,0,0,0,3,0,0,0,6,
scooby_state_402dc0|46|-1 0,1,0,0,1,0,0,1,0,0,1,2,0,0,0,6,
scooby_state_402dc0|26|-1 0,0,1,0,0,1,0,0,1,0,0,3,0,0,0,6,
scooby_state_402dc0|2|-1 1,0,0,1,0,0,1,0,0,1,0,2,0,0,0,6,
scooby_state_402dfb|0|-1 0,0,0,0,1,0,0,1,0,1,0,2,0,0,0,5,
scooby_state_402dfb|61|-1 0,0,1,0,0,0,0,1,0,0,0,3,0,0,0,5,
scooby_state_402dfb|45|-2 0,0,0,1,0,0,1,0,1,0,0,2,0,0,0,5,
scooby_state_402dfb|41|-2 0,0,0,1,0,0,0,1,0,0,1,2,0,0,0,5,
scooby_state_40307e|30|1 5,0,0,0,0,0,0,0,0,0,0,0,0,0,0,5,
scooby_state_402dfb|10|-1 0,0,1,0,0,0,0,1,0,1,0,2,0,0,0,5,
scooby_state_402dc0|15|-1 0,0,0,1,0,0,1,0,0,1,0,2,0,0,0,5,
scooby_state_402dc0|20|-1 0,0,0,1,0,1,0,0,1,0,0,2,0,0,0,5,
scooby_state_402dfb|36|-1 0,0,1,0,0,0,1,0,0,1,0,2,0,0,0,5,
scooby_state_402dfb|54|-2 0,0,1,0,0,0,0,1,0,0,1,2,0,0,0,5,
scooby_state_402dfb|58|-2 0,0,0,1,0,0,1,0,1,0,0,2,0,0,0,5,
scooby_state_402dfb|42|-2 0,1,0,0,0,0,1,0,0,1,0,2,0,0,0,5,
scooby_state_402dfb|1|-1 0,0,0,1,0,0,1,0,1,0,0,1,1,0,0,5,
scooby_state_402dfb|6|-2 0,0,0,0,1,0,0,1,1,0,0,2,0,0,0,5,
scooby_state_40307e|7|1 5,0,0,0,0,0,0,0,0,0,0,0,0,0,0,5,
scooby_state_402dfb|14|-1 0,0,0,1,0,0,1,1,0,0,0,2,0,0,0,5,
scooby_state_402dfb|25|-1 0,0,0,0,1,0,0,1,0,1,0,2,0,0,0,5,
scooby_state_40307e|8|1 5,0,0,0,0,0,0,0,0,0,0,0,0,0,0,5,
scooby_state_402dfb|44|-2 0,0,0,0,1,0,0,1,0,1,0,2,0,0,0,5,
scooby_state_402dfb|3|-2 0,0,1,0,0,0,0,1,0,1,0,2,0,0,0,5,
scooby_state_402dc0|19|-1 0,0,0,1,0,0,1,0,0,1,0,2,0,0,0,5,
scooby_state_402dfb|35|-1 0,0,0,1,0,0,0,1,0,0,0,3,0,0,0,5,
scooby_state_402dfb|13|-1 0,0,0,0,1,0,0,1,1,0,0,2,0,0,0,5,
scooby_state_402dfb|57|-2 0,0,0,0,1,0,0,1,0,1,0,2,0,0,0,5,
scooby_state_402dc0|17|-1 0,0,0,1,0,0,1,0,0,1,0,2,0,0,0,5,
scooby_state_402dfb|11|-1 0,1,0,0,0,0,1,0,1,0,0,2,0,0,0,5,
scooby_state_402dfb|49|-1 0,1,0,0,0,0,1,0,0,1,0,2,0,0,0,5,
scooby_state_402dfb|26|-1 0,0,0,0,1,0,1,0,1,0,0,2,0,0,0,5,
scooby_state_40307e|43|3 5,0,0,0,0,0,0,0,0,0,0,0,0,0,0,5,
scooby_state_402dc0|21|-1 0,0,1,0,0,1,0,0,1,0,0,2,0,0,0,5,
scooby_state_40307e|52|1 5,0,0,0,0,0,0,0,0,0,0,0,0,0,0,5,
scooby_state_402dfb|62|-1 0,1,0,0,0,0,1,0,0,1,0,1,1,0,0,5,
scooby_state_402dc0|18|-1 0,0,0,1,0,0,1,0,0,1,0,2,0,0,0,5,
scooby_state_40307e|62|1 5,0,0,0,0,0,0,0,0,0,0,0,0,0,0,5,
scooby_state_402dfb|52|-1 0,0,0,1,0,0,1,0,1,0,0,2,0,0,0,5,
scooby_state_402dfb|55|-2 0,1,0,0,0,0,1,0,0,1,0,2,0,0,0,5,
scooby_state_40307e|57|1 5,0,0,0,0,0,0,0,0,0,0,0,0,0,0,5,
scooby_state_40307e|52|3 5,0,0,0,0,0,0,0,0,0,0,0,0,0,0,5,
scooby_state_402dfb|4|-2 0,1,0,0,0,0,1,0,0,1,1,1,0,0,0,5,
scooby_state_402dfb|51|-1 0,0,0,0,1,0,0,1,0,1,0,2,0,0,0,5,
scooby_state_40307e|36|5 5,0,0,0,0,0,0,0,0,0,0,0,0,0,0,5,
scooby_state_402dfb|7|-2 0,0,0,1,0,0,1,1,0,0,1,1,0,0,0,5,
scooby_state_402dc0|16|-1 0,0,0,1,0,0,1,0,0,1,0,2,0,0,0,5,
scooby_state_402dfb|39|-1 0,0,0,1,0,0,1,0,1,0,0,2,0,0,0,5,
scooby_state_402dfb|16|-2 0,0,1,0,0,0,0,1,0,1,0,2,0,0,0,5,
scooby_state_402dfb|19|-2 0,0,0,0,1,0,0,1,1,0,0,2,0,0,0,5,
scooby_state_40307e|6|0 5,0,0,0,0,0,0,0,0,0,0,0,0,0,0,5,
scooby_state_402dfb|23|-1 0,0,1,0,0,0,1,0,0,1,0,2,0,0,0,5,
scooby_state_402dfb|28|-2 0,0,0,1,0,0,0,1,0,0,1,2,0,0,0,5,
scooby_state_402dfb|48|-1 0,0,1,0,0,0,0,1,0,0,0,3,0,0,0,5,
scooby_state_402dfb|29|-2 0,0,1,0,0,0,1,0,0,1,0,2,0,0,0,5,
scooby_state_402dfb|32|-2 0,0,0,0,1,0,1,0,1,0,0,2,0,0,0,5,
scooby_state_40307e|22|1 5,0,0,0,0,0,0,0,0,0,0,0,0,0,0,5,
scooby_state_402dfb|38|-1 0,0,0,0,1,0,0,1,0,1,0,2,0,0,0,5,
scooby_state_402dfb|31|-2 0,0,0,0,1,0,0,1,0,1,0,2,0,0,0,5,
scooby_state_40307e|37|1 5,0,0,0,0,0,0,0,0,0,0,0,0,0,0,5,
scooby_state_40307e|40|-3 5,0,0,0,0,0,0,0,0,0,0,0,0,0,0,5,
scooby_state_40307e|25|1 5,0,0,0,0,0,0,0,0,0,0,0,0,0,0,5,
scooby_state_40307e|21|1 4,0,0,0,0,0,0,0,0,0,0,0,0,0,0,4,
scooby_state_403012|31|-2 1,0,3,0,0,0,0,0,0,0,0,0,0,0,0,4,
scooby_state_40307e|46|8 4,0,0,0,0,0,0,0,0,0,0,0,0,0,0,4,
scooby_state_40307e|39|1 4,0,0,0,0,0,0,0,0,0,0,0,0,0,0,4,
scooby_state_40307e|37|3 4,0,0,0,0,0,0,0,0,0,0,0,0,0,0,4,
scooby_state_40307e|27|1 4,0,0,0,0,0,0,0,0,0,0,0,0,0,0,4,
scooby_state_40307e|19|1 4,0,0,0,0,0,0,0,0,0,0,0,0,0,0,4,
scooby_state_40307e|11|0 4,0,0,0,0,0,0,0,0,0,0,0,0,0,0,4,
scooby_state_40307e|48|3 4,0,0,0,0,0,0,0,0,0,0,0,0,0,0,4,
scooby_state_40307e|43|1 4,0,0,0,0,0,0,0,0,0,0,0,0,0,0,4,
scooby_state_40307e|8|0 4,0,0,0,0,0,0,0,0,0,0,0,0,0,0,4,
scooby_state_40307e|14|-3 4,0,0,0,0,0,0,0,0,0,0,0,0,0,0,4,
scooby_state_40307e|56|3 4,0,0,0,0,0,0,0,0,0,0,0,0,0,0,4,
scooby_state_40307e|3|0 4,0,0,0,0,0,0,0,0,0,0,0,0,0,0,4,
scooby_state_40307e|32|1 4,0,0,0,0,0,0,0,0,0,0,0,0,0,0,4,
scooby_state_40307e|41|1 4,0,0,0,0,0,0,0,0,0,0,0,0,0,0,4,
scooby_state_40307e|27|4 4,0,0,0,0,0,0,0,0,0,0,0,0,0,0,4,
scooby_state_403039|47|-2 1,0,2,0,0,0,0,0,0,0,0,1,0,0,0,4,
scooby_state_40307e|42|3 4,0,0,0,0,0,0,0,0,0,0,0,0,0,0,4,
scooby_state_40307e|37|-3 4,0,0,0,0,0,0,0,0,0,0,0,0,0,0,4,
scooby_state_403012|5|-2 1,0,3,0,0,0,0,0,0,0,0,0,0,0,0,4,
scooby_state_403012|6|-2 0,0,4,0,0,0,0,0,0,0,0,0,0,0,0,4,
scooby_state_40307e|49|1 4,0,0,0,0,0,0,0,0,0,0,0,0,0,0,4,
scooby_state_40307e|42|1 4,0,0,0,0,0,0,0,0,0,0,0,0,0,0,4,
scooby_state_40307e|24|1 4,0,0,0,0,0,0,0,0,0,0,0,0,0,0,4,
scooby_state_40307e|26|3 4,0,0,0,0,0,0,0,0,0,0,0,0,0,0,4,
scooby_state_40307e|59|-3 4,0,0,0,0,0,0,0,0,0,0,0,0,0,0,4,
scooby_state_403012|30|-2 0,0,4,0,0,0,0,0,0,0,0,0,0,0,0,4,
scooby_state_40307e|0|-3 3,1,0,0,0,0,0,0,0,0,0,0,0,0,0,4,
scooby_state_40307e|35|1 4,0,0,0,0,0,0,0,0,0,0,0,0,0,0,4,
scooby_state_40307e|16|0 3,0,0,0,0,0,0,0,0,0,0,0,0,0,0,3,
scooby_state_40307e|36|3 3,0,0,0,0,0,0,0,0,0,0,0,0,0,0,3,
scooby_state_40307e|20|5 3,0,0,0,0,0,0,0,0,0,0,0,0,0,0,3,
scooby_state_40307e|3|1 3,0,0,0,0,0,0,0,0,0,0,0,0,0,0,3,
scooby_state_40307e|41|3 3,0,0,0,0,0,0,0,0,0,0,0,0,0,0,3,
scooby_state_40307e|23|-3 3,0,0,0,0,0,0,0,0,0,0,0,0,0,0,3,
scooby_state_40307e|25|-3 3,0,0,0,0,0,0,0,0,0,0,0,0,0,0,3,
scooby_state_40307e|59|1 3,0,0,0,0,0,0,0,0,0,0,0,0,0,0,3,
scooby_state_40307e|3|2 3,0,0,0,0,0,0,0,0,0,0,0,0,0,0,3,
scooby_state_40307e|6|2 3,0,0,0,0,0,0,0,0,0,0,0,0,0,0,3,
scooby_state_40307e|62|4 3,0,0,0,0,0,0,0,0,0,0,0,0,0,0,3,
scooby_state_40307e|61|1 3,0,0,0,0,0,0,0,0,0,0,0,0,0,0,3,
scooby_state_40307e|20|-3 3,0,0,0,0,0,0,0,0,0,0,0,0,0,0,3,
scooby_state_403039|26|-2 1,2,0,0,0,0,0,0,0,0,0,0,0,0,0,3,
scooby_state_40307e|32|-5 3,0,0,0,0,0,0,0,0,0,0,0,0,0,0,3,
scooby_state_40307e|45|-1 3,0,0,0,0,0,0,0,0,0,0,0,0,0,0,3,
scooby_state_40307e|14|2 3,0,0,0,0,0,0,0,0,0,0,0,0,0,0,3,
scooby_state_40307e|58|3 3,0,0,0,0,0,0,0,0,0,0,0,0,0,0,3,
scooby_state_40307e|6|3 3,0,0,0,0,0,0,0,0,0,0,0,0,0,0,3,
scooby_state_40307e|13|1 3,0,0,0,0,0,0,0,0,0,0,0,0,0,0,3,
scooby_state_403039|32|-2 0,0,2,0,0,0,0,0,0,0,0,1,0,0,0,3,
scooby_state_40307e|31|1 3,0,0,0,0,0,0,0,0,0,0,0,0,0,0,3,
scooby_state_40307e|42|5 3,0,0,0,0,0,0,0,0,0,0,0,0,0,0,3,
scooby_state_40307e|51|1 3,0,0,0,0,0,0,0,0,0,0,0,0,0,0,3,
scooby_state_40307e|7|4 3,0,0,0,0,0,0,0,0,0,0,0,0,0,0,3,
scooby_state_40307e|24|-5 3,0,0,0,0,0,0,0,0,0,0,0,0,0,0,3,
scooby_state_40307e|11|-3 3,0,0,0,0,0,0,0,0,0,0,0,0,0,0,3,
scooby_state_403012|28|-2 0,0,3,0,0,0,0,0,0,0,0,0,0,0,0,3,
scooby_state_40307e|39|0 3,0,0,0,0,0,0,0,0,0,0,0,0,0,0,3,
scooby_state_40307e|54|3 3,0,0,0,0,0,0,0,0,0,0,0,0,0,0,3,
scooby_state_40307e|35|0 3,0,0,0,0,0,0,0,0,0,0,0,0,0,0,3,
scooby_state_40307e|6|1 3,0,0,0,0,0,0,0,0,0,0,0,0,0,0,3,
scooby_state_40307e|7|2 3,0,0,0,0,0,0,0,0,0,0,0,0,0,0,3,
scooby_state_40307e|14|0 3,0,0,0,0,0,0,0,0,0,0,0,0,0,0,3,
scooby_state_40307e|19|-3 3,0,0,0,0,0,0,0,0,0,0,0,0,0,0,3,
scooby_state_40307e|3|3 3,0,0,0,0,0,0,0,0,0,0,0,0,0,0,3,
scooby_state_403012|37|-2 0,0,3,0,0,0,0,0,0,0,0,0,0,0,0,3,
scooby_state_40307e|20|8 3,0,0,0,0,0,0,0,0,0,0,0,0,0,0,3,
scooby_state_40307e|5|1 3,0,0,0,0,0,0,0,0,0,0,0,0,0,0,3,
scooby_state_403012|55|-2 0,1,2,0,0,0,0,0,0,0,0,0,0,0,0,3,
scooby_state_403039|46|-2 1,0,0,0,0,0,0,0,0,0,0,2,0,0,0,3,
scooby_state_40307e|31|-3 3,0,0,0,0,0,0,0,0,0,0,0,0,0,0,3,
scooby_state_40307e|5|2 3,0,0,0,0,0,0,0,0,0,0,0,0,0,0,3,
scooby_state_403012|62|-1 1,0,2,0,0,0,0,0,0,0,0,0,0,0,0,3,
scooby_state_40307e|6|4 3,0,0,0,0,0,0,0,0,0,0,0,0,0,0,3,
scooby_state_40307e|60|2 3,0,0,0,0,0,0,0,0,0,0,0,0,0,0,3,
scooby_state_40307e|63|1 3,0,0,0,0,0,0,0,0,0,0,0,0,0,0,3,
scooby_state_403012|7|-2 1,0,2,0,0,0,0,0,0,0,0,0,0,0,0,3,
scooby_state_40307e|25|-1 3,0,0,0,0,0,0,0,0,0,0,0,0,0,0,3,
scooby_state_40307e|4|1 3,0,0,0,0,0,0,0,0,0,0,0,0,0,0,3,
scooby_state_40307e|22|6 3,0,0,0,0,0,0,0,0,0,0,0,0,0,0,3,
scooby_state_40307e|55|-8 3,0,0,0,0,0,0,0,0,0,0,0,0,0,0,3,
scooby_state_403039|38|-2 0,1,1,0,0,0,0,0,0,0,0,1,0,0,0,3,
scooby_state_40307e|60|1 3,0,0,0,0,0,0,0,0,0,0,0,0,0,0,3,
scooby_state_403039|23|-2 0,1,2,0,0,0,0,0,0,0,0,0,0,0,0,3,
scooby_state_40307e|45|5 3,0,0,0,0,0,0,0,0,0,0,0,0,0,0,3,
scooby_state_40301c|37|-2 0,1,2,0,0,0,0,0,0,0,0,0,0,0,0,3,
scooby_state_403012|39|-2 0,0,3,0,0,0,0,0,0,0,0,0,0,0,0,3,
scooby_state_40307e|32|6 3,0,0,0,0,0,0,0,0,0,0,0,0,0,0,3,
scooby_state_40307e|51|2 3,0,0,0,0,0,0,0,0,0,0,0,0,0,0,3,
scooby_state_40307e|52|2 3,0,0,0,0,0,0,0,0,0,0,0,0,0,0,3,
scooby_state_40307e|5|-10 3,0,0,0,0,0,0,0,0,0,0,0,0,0,0,3,
scooby_state_40307e|30|3 3,0,0,0,0,0,0,0,0,0,0,0,0,0,0,3,
scooby_state_40307e|59|3 3,0,0,0,0,0,0,0,0,0,0,0,0,0,0,3,
scooby_state_403012|1|-2 0,0,3,0,0,0,0,0,0,0,0,0,0,0,0,3,
scooby_state_40307e|10|8 3,0,0,0,0,0,0,0,0,0,0,0,0,0,0,3,
scooby_state_40307e|23|1 3,0,0,0,0,0,0,0,0,0,0,0,0,0,0,3,
scooby_state_402dc3|50|-5 2,0,0,0,0,0,0,0,0,0,0,0,0,0,0,2,
scooby_state_40307e|26|8 2,0,0,0,0,0,0,0,0,0,0,0,0,0,0,2,
scooby_state_402dc7|7|-1 1,1,0,0,0,0,0,0,0,0,0,0,0,0,0,2,
scooby_state_40307e|50|0 2,0,0,0,0,0,0,0,0,0,0,0,0,0,0,2,
scooby_state_402dc7|5|-1 2,0,0,0,0,0,0,0,0,0,0,0,0,0,0,2,
scooby_state_40307e|50|3 2,0,0,0,0,0,0,0,0,0,0,0,0,0,0,2,
scooby_state_40307e|23|3 2,0,0,0,0,0,0,0,0,0,0,0,0,0,0,2,
scooby_state_40307e|57|-6 2,0,0,0,0,0,0,0,0,0,0,0,0,0,0,2,
scooby_state_402dc3|36|-5 2,0,0,0,0,0,0,0,0,0,0,0,0,0,0,2,
scooby_state_40307e|4|3 2,0,0,0,0,0,0,0,0,0,0,0,0,0,0,2,
scooby_state_403012|40|-1 0,0,2,0,0,0,0,0,0,0,0,0,0,0,0,2,
scooby_state_40307e|47|0 2,0,0,0,0,0,0,0,0,0,0,0,0,0,0,2,
scooby_state_40307e|56|0 2,0,0,0,0,0,0,0,0,0,0,0,0,0,0,2,
scooby_state_40307e|40|10 2,0,0,0,0,0,0,0,0,0,0,0,0,0,0,2,
scooby_state_402dc3|17|-5 2,0,0,0,0,0,0,0,0,0,0,0,0,0,0,2,
scooby_state_40307e|20|-1 2,0,0,0,0,0,0,0,0,0,0,0,0,0,0,2,
scooby_state_40307e|8|3 2,0,0,0,0,0,0,0,0,0,0,0,0,0,0,2,
scooby_state_403012|22|-2 0,0,2,0,0,0,0,0,0,0,0,0,0,0,0,2,
scooby_state_40307e|44|3 2,0,0,0,0,0,0,0,0,0,0,0,0,0,0,2,
scooby_state_402dc7|55|-1 1,0,1,0,0,0,0,0,0,0,0,0,0,0,0,2,
scooby_state_40307e|57|3 2,0,0,0,0,0,0,0,0,0,0,0,0,0,0,2,
scooby_state_40307e|22|2 2,0,0,0,0,0,0,0,0,0,0,0,0,0,0,2,
scooby_state_402dc7|45|-1 1,1,0,0,0,0,0,0,0,0,0,0,0,0,0,2,
scooby_state_40307e|32|10 2,0,0,0,0,0,0,0,0,0,0,0,0,0,0,2,
scooby_state_40307e|42|2 2,0,0,0,0,0,0,0,0,0,0,0,0,0,0,2,
scooby_state_402dc3|9|-5 2,0,0,0,0,0,0,0,0,0,0,0,0,0,0,2,
scooby_state_40307e|21|0 2,0,0,0,0,0,0,0,0,0,0,0,0,0,0,2,
scooby_state_40307e|61|2 2,0,0,0,0,0,0,0,0,0,0,0,0,0,0,2,
scooby_state_40307e|33|1 2,0,0,0,0,0,0,0,0,0,0,0,0,0,0,2,
scooby_state_402dc7|21|-1 2,0,0,0,0,0,0,0,0,0,0,0,0,0,0,2,
scooby_state_403012|0|-2 1,0,1,0,0,0,0,0,0,0,0,0,0,0,0,2,
scooby_state_403039|61|-2 1,0,1,0,0,0,0,0,0,0,0,0,0,0,0,2,
scooby_state_40307e|15|1 2,0,0,0,0,0,0,0,0,0,0,0,0,0,0,2,
scooby_state_402dc3|47|-5 2,0,0,0,0,0,0,0,0,0,0,0,0,0,0,2,
scooby_state_403039|51|-2 0,0,1,1,0,0,0,0,0,0,0,0,0,0,0,2,
scooby_state_40307e|37|5 2,0,0,0,0,0,0,0,0,0,0,0,0,0,0,2,
scooby_state_40307e|15|2 2,0,0,0,0,0,0,0,0,0,0,0,0,0,0,2,
scooby_state_402dc3|20|-5 2,0,0,0,0,0,0,0,0,0,0,0,0,0,0,2,
scooby_state_40307e|33|5 2,0,0,0,0,0,0,0,0,0,0,0,0,0,0,2,
scooby_state_40307e|39|8 2,0,0,0,0,0,0,0,0,0,0,0,0,0,0,2,
scooby_state_40307e|43|0 2,0,0,0,0,0,0,0,0,0,0,0,0,0,0,2,
scooby_state_40307e|38|6 2,0,0,0,0,0,0,0,0,0,0,0,0,0,0,2,
scooby_state_402dc7|59|-1 2,0,0,0,0,0,0,0,0,0,0,0,0,0,0,2,
scooby_state_403039|33|-2 1,0,1,0,0,0,0,0,0,0,0,0,0,0,0,2,
scooby_state_40307e|7|6 2,0,0,0,0,0,0,0,0,0,0,0,0,0,0,2,
scooby_state_40307e|21|-12 2,0,0,0,0,0,0,0,0,0,0,0,0,0,0,2,
scooby_state_40307e|17|-3 2,0,0,0,0,0,0,0,0,0,0,0,0,0,0,2,
scooby_state_402dc7|18|-1 2,0,0,0,0,0,0,0,0,0,0,0,0,0,0,2,
scooby_state_403012|33|-2 0,0,2,0,0,0,0,0,0,0,0,0,0,0,0,2,
scooby_state_403039|2|-2 0,0,2,0,0,0,0,0,0,0,0,0,0,0,0,2,
scooby_state_402dc7|28|-1 1,0,0,1,0,0,0,0,0,0,0,0,0,0,0,2,
scooby_state_40307e|58|4 2,0,0,0,0,0,0,0,0,0,0,0,0,0,0,2,
scooby_state_40307e|10|0 2,0,0,0,0,0,0,0,0,0,0,0,0,0,0,2,
scooby_state_40307e|43|-12 2,0,0,0,0,0,0,0,0,0,0,0,0,0,0,2,
scooby_state_402dc3|13|-5 2,0,0,0,0,0,0,0,0,0,0,0,0,0,0,2,
scooby_state_40307e|34|5 2,0,0,0,0,0,0,0,0,0,0,0,0,0,0,2,
scooby_state_40307e|58|0 2,0,0,0,0,0,0,0,0,0,0,0,0,0,0,2,
scooby_state_40307e|23|0 2,0,0,0,0,0,0,0,0,0,0,0,0,0,0,2,
scooby_state_40307e|27|8 2,0,0,0,0,0,0,0,0,0,0,0,0,0,0,2,
scooby_state_40307e|15|4 2,0,0,0,0,0,0,0,0,0,0,0,0,0,0,2,
scooby_state_40307e|37|0 2,0,0,0,0,0,0,0,0,0,0,0,0,0,0,2,
scooby_state_402dc7|33|-1 1,1,0,0,0,0,0,0,0,0,0,0,0,0,0,2,
scooby_state_40307e|18|-3 2,0,0,0,0,0,0,0,0,0,0,0,0,0,0,2,
scooby_state_402dc3|0|-5 2,0,0,0,0,0,0,0,0,0,0,0,0,0,0,2,
scooby_state_40307e|8|5 2,0,0,0,0,0,0,0,0,0,0,0,0,0,0,2,
scooby_state_402dc3|44|-5 2,0,0,0,0,0,0,0,0,0,0,0,0,0,0,2,
scooby_state_40307e|16|8 2,0,0,0,0,0,0,0,0,0,0,0,0,0,0,2,
scooby_state_402dc3|46|-5 2,0,0,0,0,0,0,0,0,0,0,0,0,0,0,2,
scooby_state_40307e|60|-3 2,0,0,0,0,0,0,0,0,0,0,0,0,0,0,2,
scooby_state_402dc3|37|-5 2,0,0,0,0,0,0,0,0,0,0,0,0,0,0,2,
scooby_state_402dc7|16|-1 1,0,0,1,0,0,0,0,0,0,0,0,0,0,0,2,
scooby_state_40307e|49|-3 2,0,0,0,0,0,0,0,0,0,0,0,0,0,0,2,
scooby_state_402dc3|23|-5 2,0,0,0,0,0,0,0,0,0,0,0,0,0,0,2,
scooby_state_40307e|11|-1 2,0,0,0,0,0,0,0,0,0,0,0,0,0,0,2,
scooby_state_40307e|44|4 2,0,0,0,0,0,0,0,0,0,0,0,0,0,0,2,
scooby_state_40307e|60|5 2,0,0,0,0,0,0,0,0,0,0,0,0,0,0,2,
scooby_state_40307e|33|0 2,0,0,0,0,0,0,0,0,0,0,0,0,0,0,2,
scooby_state_40307e|16|6 2,0,0,0,0,0,0,0,0,0,0,0,0,0,0,2,
scooby_state_402dc7|54|-1 1,0,0,1,0,0,0,0,0,0,0,0,0,0,0,2,
scooby_state_402dc3|10|-5 2,0,0,0,0,0,0,0,0,0,0,0,0,0,0,2,
scooby_state_40307e|12|-7 2,0,0,0,0,0,0,0,0,0,0,0,0,0,0,2,
scooby_state_403012|44|-2 0,1,1,0,0,0,0,0,0,0,0,0,0,0,0,2,
scooby_state_40301c|57|-2 0,0,2,0,0,0,0,0,0,0,0,0,0,0,0,2,
scooby_state_40307e|8|-1 2,0,0,0,0,0,0,0,0,0,0,0,0,0,0,2,
scooby_state_40307e|46|2 2,0,0,0,0,0,0,0,0,0,0,0,0,0,0,2,
scooby_state_40307e|36|6 2,0,0,0,0,0,0,0,0,0,0,0,0,0,0,2,
scooby_state_40307e|2|-5 2,0,0,0,0,0,0,0,0,0,0,0,0,0,0,2,
scooby_state_40307e|60|-1 2,0,0,0,0,0,0,0,0,0,0,0,0,0,0,2,
scooby_state_40307e|19|4 2,0,0,0,0,0,0,0,0,0,0,0,0,0,0,2,
scooby_state_403012|36|-2 0,0,2,0,0,0,0,0,0,0,0,0,0,0,0,2,
scooby_state_402dc7|4|-1 1,0,1,0,0,0,0,0,0,0,0,0,0,0,0,2,
scooby_state_40307e|35|-23 2,0,0,0,0,0,0,0,0,0,0,0,0,0,0,2,
scooby_state_402dc3|53|-5 2,0,0,0,0,0,0,0,0,0,0,0,0,0,0,2,
scooby_state_403012|32|-2 0,0,2,0,0,0,0,0,0,0,0,0,0,0,0,2,
scooby_state_402dc3|40|-5 2,0,0,0,0,0,0,0,0,0,0,0,0,0,0,2,
scooby_state_403012|35|-2 0,0,2,0,0,0,0,0,0,0,0,0,0,0,0,2,
scooby_state_402dc3|3|-5 2,0,0,0,0,0,0,0,0,0,0,0,0,0,0,2,
scooby_state_402dc3|57|-5 2,0,0,0,0,0,0,0,0,0,0,0,0,0,0,2,
scooby_state_40307e|21|4 2,0,0,0,0,0,0,0,0,0,0,0,0,0,0,2,
scooby_state_40307e|46|4 2,0,0,0,0,0,0,0,0,0,0,0,0,0,0,2,
scooby_state_40307e|5|-16 2,0,0,0,0,0,0,0,0,0,0,0,0,0,0,2,
scooby_state_403012|8|-2 0,0,2,0,0,0,0,0,0,0,0,0,0,0,0,2,
scooby_state_40307e|30|28 2,0,0,0,0,0,0,0,0,0,0,0,0,0,0,2,
scooby_state_40307e|27|0 2,0,0,0,0,0,0,0,0,0,0,0,0,0,0,2,
scooby_state_402dc3|26|-5 2,0,0,0,0,0,0,0,0,0,0,0,0,0,0,2,
scooby_state_40307e|30|-5 2,0,0,0,0,0,0,0,0,0,0,0,0,0,0,2,
scooby_state_40307e|42|4 2,0,0,0,0,0,0,0,0,0,0,0,0,0,0,2,
scooby_state_40307e|27|3 2,0,0,0,0,0,0,0,0,0,0,0,0,0,0,2,
scooby_state_402dc7|20|-1 0,1,0,1,0,0,0,0,0,0,0,0,0,0,0,2,
scooby_state_402dc7|29|-1 1,0,0,1,0,0,0,0,0,0,0,0,0,0,0,2,
scooby_state_40307e|31|0 2,0,0,0,0,0,0,0,0,0,0,0,0,0,0,2,
scooby_state_40307e|38|-7 2,0,0,0,0,0,0,0,0,0,0,0,0,0,0,2,
scooby_state_402dc3|6|-5 2,0,0,0,0,0,0,0,0,0,0,0,0,0,0,2,
scooby_state_40307e|45|-14 2,0,0,0,0,0,0,0,0,0,0,0,0,0,0,2,
scooby_state_40307e|43|-8 2,0,0,0,0,0,0,0,0,0,0,0,0,0,0,2,
scooby_state_402dc3|54|-5 2,0,0,0,0,0,0,0,0,0,0,0,0,0,0,2,
scooby_state_403012|11|-2 0,0,2,0,0,0,0,0,0,0,0,0,0,0,0,2,
scooby_state_403039|14|-2 0,0,2,0,0,0,0,0,0,0,0,0,0,0,0,2,
scooby_state_403012|16|-2 0,0,2,0,0,0,0,0,0,0,0,0,0,0,0,2,
scooby_state_40307e|34|10 2,0,0,0,0,0,0,0,0,0,0,0,0,0,0,2,
scooby_state_40307e|24|19 2,0,0,0,0,0,0,0,0,0,0,0,0,0,0,2,
scooby_state_403012|38|-2 0,0,2,0,0,0,0,0,0,0,0,0,0,0,0,2,
scooby_state_40307e|29|4 2,0,0,0,0,0,0,0,0,0,0,0,0,0,0,2,
scooby_state_40301c|48|-2 1,0,1,0,0,0,0,0,0,0,0,0,0,0,0,2,
scooby_state_403012|13|-2 0,0,2,0,0,0,0,0,0,0,0,0,0,0,0,2,
scooby_state_40307e|29|3 2,0,0,0,0,0,0,0,0,0,0,0,0,0,0,2,
scooby_state_40307e|24|5 2,0,0,0,0,0,0,0,0,0,0,0,0,0,0,2,
scooby_state_40307e|8|-3 2,0,0,0,0,0,0,0,0,0,0,0,0,0,0,2,
scooby_state_40307e|35|6 2,0,0,0,0,0,0,0,0,0,0,0,0,0,0,2,
scooby_state_40307e|62|2 2,0,0,0,0,0,0,0,0,0,0,0,0,0,0,2,
scooby_state_402dc7|43|-1 1,0,1,0,0,0,0,0,0,0,0,0,0,0,0,2,
scooby_state_40307e|45|4 2,0,0,0,0,0,0,0,0,0,0,0,0,0,0,2,
scooby_state_403083|0|-2 2,0,0,0,0,0,0,0,0,0,0,0,0,0,0,2,
scooby_state_402dc7|31|-1 2,0,0,0,0,0,0,0,0,0,0,0,0,0,0,2,
scooby_state_40307e|27|-3 2,0,0,0,0,0,0,0,0,0,0,0,0,0,0,2,
scooby_state_40307e|40|4 2,0,0,0,0,0,0,0,0,0,0,0,0,0,0,2,
scooby_state_402dc3|19|-5 2,0,0,0,0,0,0,0,0,0,0,0,0,0,0,2,
scooby_state_40307e|61|17 2,0,0,0,0,0,0,0,0,0,0,0,0,0,0,2,
scooby_state_402dc7|41|-1 1,0,0,1,0,0,0,0,0,0,0,0,0,0,0,2,
scooby_state_402dc3|30|-5 2,0,0,0,0,0,0,0,0,0,0,0,0,0,0,2,
scooby_state_40307e|12|8 2,0,0,0,0,0,0,0,0,0,0,0,0,0,0,2,
scooby_state_40307e|10|-5 2,0,0,0,0,0,0,0,0,0,0,0,0,0,0,2,
scooby_state_40307e|29|-6 2,0,0,0,0,0,0,0,0,0,0,0,0,0,0,2,
scooby_state_40307e|51|-3 2,0,0,0,0,0,0,0,0,0,0,0,0,0,0,2,
scooby_state_402dc3|56|-5 2,0,0,0,0,0,0,0,0,0,0,0,0,0,0,2,
scooby_state_40307e|12|3 2,0,0,0,0,0,0,0,0,0,0,0,0,0,0,2,
scooby_state_40307e|39|3 2,0,0,0,0,0,0,0,0,0,0,0,0,0,0,2,
scooby_state_402dcb|0|-4 1,0,0,0,0,0,0,0,0,0,0,0,1,0,0,2,
scooby_state_40301c|55|-2 0,0,2,0,0,0,0,0,0,0,0,0,0,0,0,2,
scooby_state_402dc7|3|-1 1,0,0,1,0,0,0,0,0,0,0,0,0,0,0,2,
scooby_state_40307e|14|-7 2,0,0,0,0,0,0,0,0,0,0,0,0,0,0,2,
scooby_state_403012|45|-2 0,0,2,0,0,0,0,0,0,0,0,0,0,0,0,2,
scooby_state_40307e|63|3 2,0,0,0,0,0,0,0,0,0,0,0,0,0,0,2,
scooby_state_40307e|28|6 2,0,0,0,0,0,0,0,0,0,0,0,0,0,0,2,
scooby_state_403012|63|0 1,0,1,0,0,0,0,0,0,0,0,0,0,0,0,2,
scooby_state_40307e|60|3 2,0,0,0,0,0,0,0,0,0,0,0,0,0,0,2,
scooby_state_402dc7|57|-1 2,0,0,0,0,0,0,0,0,0,0,0,0,0,0,2,
scooby_state_40301c|54|-2 0,0,2,0,0,0,0,0,0,0,0,0,0,0,0,2,
scooby_state_40307e|33|-5 2,0,0,0,0,0,0,0,0,0,0,0,0,0,0,2,
scooby_state_40307e|24|2 2,0,0,0,0,0,0,0,0,0,0,0,0,0,0,2,
scooby_state_40307e|61|4 2,0,0,0,0,0,0,0,0,0,0,0,0,0,0,2,
scooby_state_40307e|63|4 2,0,0,0,0,0,0,0,0,0,0,0,0,0,0,2,
scooby_state_40307e|16|-3 1,0,0,0,0,0,0,0,0,0,0,1,0,0,0,2,
scooby_state_403039|21|-2 0,0,2,0,0,0,0,0,0,0,0,0,0,0,0,2,
scooby_state_40307e|32|2 2,0,0,0,0,0,0,0,0,0,0,0,0,0,0,2,
scooby_state_40307e|51|-5 2,0,0,0,0,0,0,0,0,0,0,0,0,0,0,2,
scooby_state_402dc7|32|-1 2,0,0,0,0,0,0,0,0,0,0,0,0,0,0,2,
scooby_state_403012|57|-2 0,1,1,0,0,0,0,0,0,0,0,0,0,0,0,2,
scooby_state_402dc7|6|-1 2,0,0,0,0,0,0,0,0,0,0,0,0,0,0,2,
scooby_state_40307e|9|3 2,0,0,0,0,0,0,0,0,0,0,0,0,0,0,2,
scooby_state_40307e|23|10 2,0,0,0,0,0,0,0,0,0,0,0,0,0,0,2,
scooby_state_40307e|21|-3 2,0,0,0,0,0,0,0,0,0,0,0,0,0,0,2,
scooby_state_40307e|48|4 2,0,0,0,0,0,0,0,0,0,0,0,0,0,0,2,
scooby_state_402dc7|44|-1 2,0,0,0,0,0,0,0,0,0,0,0,0,0,0,2,
scooby_state_403012|9|-2 1,0,1,0,0,0,0,0,0,0,0,0,0,0,0,2,
scooby_state_40307e|32|4 2,0,0,0,0,0,0,0,0,0,0,0,0,0,0,2,
scooby_state_403039|10|-2 1,0,1,0,0,0,0,0,0,0,0,0,0,0,0,2,
scooby_state_403012|15|-2 0,0,2,0,0,0,0,0,0,0,0,0,0,0,0,2,
scooby_state_40307e|26|5 2,0,0,0,0,0,0,0,0,0,0,0,0,0,0,2,
scooby_state_402dc7|30|-1 1,0,1,0,0,0,0,0,0,0,0,0,0,0,0,2,
scooby_state_40307e|34|14 2,0,0,0,0,0,0,0,0,0,0,0,0,0,0,2,
scooby_state_40307e|62|11 2,0,0,0,0,0,0,0,0,0,0,0,0,0,0,2,
scooby_state_40307e|47|4 2,0,0,0,0,0,0,0,0,0,0,0,0,0,0,2,
scooby_state_40307e|44|10 2,0,0,0,0,0,0,0,0,0,0,0,0,0,0,2,
scooby_state_403039|40|-2 0,0,2,0,0,0,0,0,0,0,0,0,0,0,0,2,
scooby_state_40307e|5|0 2,0,0,0,0,0,0,0,0,0,0,0,0,0,0,2,
scooby_state_40307e|39|-3 2,0,0,0,0,0,0,0,0,0,0,0,0,0,0,2,
scooby_state_40307e|30|4 2,0,0,0,0,0,0,0,0,0,0,0,0,0,0,2,
scooby_state_40307e|15|10 2,0,0,0,0,0,0,0,0,0,0,0,0,0,0,2,
scooby_state_40307e|56|-3 2,0,0,0,0,0,0,0,0,0,0,0,0,0,0,2,
scooby_state_40307e|50|2 2,0,0,0,0,0,0,0,0,0,0,0,0,0,0,2,
scooby_state_40307e|41|35 2,0,0,0,0,0,0,0,0,0,0,0,0,0,0,2,
scooby_state_40307e|25|0 2,0,0,0,0,0,0,0,0,0,0,0,0,0,0,2,
scooby_state_402dc7|42|-1 1,0,1,0,0,0,0,0,0,0,0,0,0,0,0,2,
scooby_state_40307e|28|3 2,0,0,0,0,0,0,0,0,0,0,0,0,0,0,2,
scooby_state_403012|34|-2 1,0,1,0,0,0,0,0,0,0,0,0,0,0,0,2,
scooby_state_402dc3|29|-5 2,0,0,0,0,0,0,0,0,0,0,0,0,0,0,2,
scooby_state_40307e|29|-7 2,0,0,0,0,0,0,0,0,0,0,0,0,0,0,2,
scooby_state_40307e|34|8 2,0,0,0,0,0,0,0,0,0,0,0,0,0,0,2,
scooby_state_402dc7|58|-1 1,1,0,0,0,0,0,0,0,0,0,0,0,0,0,2,
scooby_state_402dc3|33|-5 2,0,0,0,0,0,0,0,0,0,0,0,0,0,0,2,
scooby_state_403039|55|-2 0,0,0,0,0,0,0,0,0,0,0,2,0,0,0,2,
scooby_state_402dc7|46|-1 1,0,0,0,0,0,0,0,0,1,0,0,0,0,0,2,
scooby_state_403012|56|-2 0,0,2,0,0,0,0,0,0,0,0,0,0,0,0,2,
scooby_state_402dc3|16|-5 2,0,0,0,0,0,0,0,0,0,0,0,0,0,0,2,
scooby_state_402dc3|27|-5 2,0,0,0,0,0,0,0,0,0,0,0,0,0,0,2,
scooby_state_40307e|53|-10 2,0,0,0,0,0,0,0,0,0,0,0,0,0,0,2,
scooby_state_40307e|6|-1 2,0,0,0,0,0,0,0,0,0,0,0,0,0,0,2,
scooby_state_40301c|27|-2 0,0,2,0,0,0,0,0,0,0,0,0,0,0,0,2,
scooby_state_40307e|35|15 2,0,0,0,0,0,0,0,0,0,0,0,0,0,0,2,
scooby_state_402dc7|56|-1 2,0,0,0,0,0,0,0,0,0,0,0,0,0,0,2,
scooby_state_40307e|39|-4 2,0,0,0,0,0,0,0,0,0,0,0,0,0,0,2,
scooby_state_402dc7|19|-1 2,0,0,0,0,0,0,0,0,0,0,0,0,0,0,2,
scooby_state_402dc3|43|-5 2,0,0,0,0,0,0,0,0,0,0,0,0,0,0,2,
scooby_state_40307e|4|4 2,0,0,0,0,0,0,0,0,0,0,0,0,0,0,2,
scooby_state_403012|20|-2 1,0,1,0,0,0,0,0,0,0,0,0,0,0,0,2,
scooby_state_402dc7|17|-1 1,0,1,0,0,0,0,0,0,0,0,0,0,0,0,2,
scooby_state_403012|29|-2 1,0,1,0,0,0,0,0,0,0,0,0,0,0,0,2,
scooby_state_40307e|14|4 2,0,0,0,0,0,0,0,0,0,0,0,0,0,0,2,
scooby_state_402dc7|8|-1 2,0,0,0,0,0,0,0,0,0,0,0,0,0,0,2,
scooby_state_40307e|7|3 2,0,0,0,0,0,0,0,0,0,0,0,0,0,0,2,
scooby_state_40307e|34|3 2,0,0,0,0,0,0,0,0,0,0,0,0,0,0,2,
scooby_state_40307e|43|-7 2,0,0,0,0,0,0,0,0,0,0,0,0,0,0,2,
scooby_state_40307e|22|8 2,0,0,0,0,0,0,0,0,0,0,0,0,0,0,2,
scooby_state_40307e|49|3 1,0,0,0,0,0,0,0,0,0,0,0,0,0,0,1,
scooby_state_40307e|36|8 1,0,0,0,0,0,0,0,0,0,0,0,0,0,0,1,
scooby_state_40307e|56|-4 1,0,0,0,0,0,0,0,0,0,0,0,0,0,0,1,
scooby_state_40307e|62|32 1,0,0,0,0,0,0,0,0,0,0,0,0,0,0,1,
scooby_state_40307e|29|-19 1,0,0,0,0,0,0,0,0,0,0,0,0,0,0,1,
scooby_state_40307e|20|-5 1,0,0,0,0,0,0,0,0,0,0,0,0,0,0,1,
scooby_state_40301c|5|-2 0,0,1,0,0,0,0,0,0,0,0,0,0,0,0,1,
scooby_state_40307e|35|-8 1,0,0,0,0,0,0,0,0,0,0,0,0,0,0,1,
scooby_state_403012|21|-2 0,0,1,0,0,0,0,0,0,0,0,0,0,0,0,1,
scooby_state_402dc3|45|-5 1,0,0,0,0,0,0,0,0,0,0,0,0,0,0,1,
scooby_state_40301c|26|-2 0,0,1,0,0,0,0,0,0,0,0,0,0,0,0,1,
scooby_state_40307e|57|4 1,0,0,0,0,0,0,0,0,0,0,0,0,0,0,1,
scooby_state_40307e|53|21 1,0,0,0,0,0,0,0,0,0,0,0,0,0,0,1,
scooby_state_402e04|58|0 1,0,0,0,0,0,0,0,0,0,0,0,0,0,0,1,
scooby_state_40307e|16|5 1,0,0,0,0,0,0,0,0,0,0,0,0,0,0,1,
scooby_state_40307e|21|-15 1,0,0,0,0,0,0,0,0,0,0,0,0,0,0,1,
scooby_state_402dc7|25|-1 0,0,0,0,0,1,0,0,0,0,0,0,0,0,0,1,
scooby_state_40307e|17|-7 1,0,0,0,0,0,0,0,0,0,0,0,0,0,0,1,
scooby_state_40301c|56|-2 0,0,1,0,0,0,0,0,0,0,0,0,0,0,0,1,
scooby_state_40307e|44|-19 1,0,0,0,0,0,0,0,0,0,0,0,0,0,0,1,
scooby_state_40307e|56|26 1,0,0,0,0,0,0,0,0,0,0,0,0,0,0,1,
scooby_state_40307e|42|6 1,0,0,0,0,0,0,0,0,0,0,0,0,0,0,1,
scooby_state_40307e|45|-3 1,0,0,0,0,0,0,0,0,0,0,0,0,0,0,1,
scooby_state_403039|13|-2 0,0,1,0,0,0,0,0,0,0,0,0,0,0,0,1,
scooby_state_40307e|35|-3 1,0,0,0,0,0,0,0,0,0,0,0,0,0,0,1,
scooby_state_40307e|47|-7 1,0,0,0,0,0,0,0,0,0,0,0,0,0,0,1,
scooby_state_403039|3|-2 0,0,1,0,0,0,0,0,0,0,0,0,0,0,0,1,
scooby_state_40307e|31|-8 1,0,0,0,0,0,0,0,0,0,0,0,0,0,0,1,
scooby_state_40307e|15|3 1,0,0,0,0,0,0,0,0,0,0,0,0,0,0,1,
scooby_state_402dc7|14|-1 0,0,0,0,1,0,0,0,0,0,0,0,0,0,0,1,
scooby_state_40307e|25|8 1,0,0,0,0,0,0,0,0,0,0,0,0,0,0,1,
scooby_state_40307e|47|2 1,0,0,0,0,0,0,0,0,0,0,0,0,0,0,1,
scooby_state_402dc3|55|-5 1,0,0,0,0,0,0,0,0,0,0,0,0,0,0,1,
scooby_state_40307e|14|6 1,0,0,0,0,0,0,0,0,0,0,0,0,0,0,1,
scooby_state_40307e|16|-5 1,0,0,0,0,0,0,0,0,0,0,0,0,0,0,1,
scooby_state_403039|62|-1 1,0,0,0,0,0,0,0,0,0,0,0,0,0,0,1,
scooby_state_402dc3|35|-5 1,0,0,0,0,0,0,0,0,0,0,0,0,0,0,1,
scooby_state_40307e|44|2 1,0,0,0,0,0,0,0,0,0,0,0,0,0,0,1,
scooby_state_40307e|47|9 1,0,0,0,0,0,0,0,0,0,0,0,0,0,0,1,
scooby_state_40307e|50|-1 1,0,0,0,0,0,0,0,0,0,0,0,0,0,0,1,
scooby_state_40307e|3|-3 1,0,0,0,0,0,0,0,0,0,0,0,0,0,0,1,
scooby_state_40307e|49|8 1,0,0,0,0,0,0,0,0,0,0,0,0,0,0,1,
scooby_state_40307e|13|0 1,0,0,0,0,0,0,0,0,0,0,0,0,0,0,1,
scooby_state_40307e|39|19 1,0,0,0,0,0,0,0,0,0,0,0,0,0,0,1,
scooby_state_40307e|58|6 1,0,0,0,0,0,0,0,0,0,0,0,0,0,0,1,
scooby_state_403012|10|-1 0,0,1,0,0,0,0,0,0,0,0,0,0,0,0,1,
scooby_state_40307e|23|17 1,0,0,0,0,0,0,0,0,0,0,0,0,0,0,1,
scooby_state_40307e|37|4 1,0,0,0,0,0,0,0,0,0,0,0,0,0,0,1,
scooby_state_40307e|58|8 1,0,0,0,0,0,0,0,0,0,0,0,0,0,0,1,
scooby_state_402dc7|47|-1 1,0,0,0,0,0,0,0,0,0,0,0,0,0,0,1,
scooby_state_40307e|33|19 1,0,0,0,0,0,0,0,0,0,0,0,0,0,0,1,
scooby_state_402dc7|13|-1 1,0,0,0,0,0,0,0,0,0,0,0,0,0,0,1,
scooby_state_40307e|36|9 1,0,0,0,0,0,0,0,0,0,0,0,0,0,0,1,
scooby_state_40307e|57|5 1,0,0,0,0,0,0,0,0,0,0,0,0,0,0,1,
scooby_state_403039|63|0 0,0,1,0,0,0,0,0,0,0,0,0,0,0,0,1,
scooby_state_40307e|8|8 1,0,0,0,0,0,0,0,0,0,0,0,0,0,0,1,
scooby_state_403039|56|-2 0,0,1,0,0,0,0,0,0,0,0,0,0,0,0,1,
scooby_state_40307e|21|8 1,0,0,0,0,0,0,0,0,0,0,0,0,0,0,1,
scooby_state_402dc3|12|-5 1,0,0,0,0,0,0,0,0,0,0,0,0,0,0,1,
scooby_state_40307e|51|-8 1,0,0,0,0,0,0,0,0,0,0,0,0,0,0,1,
scooby_state_403012|52|-2 0,0,1,0,0,0,0,0,0,0,0,0,0,0,0,1,
scooby_state_402dc7|48|-1 0,0,0,0,0,0,0,1,0,0,0,0,0,0,0,1,
scooby_state_40307e|53|-1 1,0,0,0,0,0,0,0,0,0,0,0,0,0,0,1,
scooby_state_403083|18|-44 1,0,0,0,0,0,0,0,0,0,0,0,0,0,0,1,
scooby_state_40307e|31|22 1,0,0,0,0,0,0,0,0,0,0,0,0,0,0,1,
scooby_state_40307e|16|3 1,0,0,0,0,0,0,0,0,0,0,0,0,0,0,1,
scooby_state_402dc7|39|-1 1,0,0,0,0,0,0,0,0,0,0,0,0,0,0,1,
scooby_state_40307e|31|3 1,0,0,0,0,0,0,0,0,0,0,0,0,0,0,1,
scooby_state_40307e|25|4 1,0,0,0,0,0,0,0,0,0,0,0,0,0,0,1,
scooby_state_40307e|57|49 1,0,0,0,0,0,0,0,0,0,0,0,0,0,0,1,
scooby_state_40307e|7|-3 1,0,0,0,0,0,0,0,0,0,0,0,0,0,0,1,
scooby_state_40307e|15|-16 1,0,0,0,0,0,0,0,0,0,0,0,0,0,0,1,
scooby_state_402dc3|42|-5 1,0,0,0,0,0,0,0,0,0,0,0,0,0,0,1,
scooby_state_40307e|18|15 1,0,0,0,0,0,0,0,0,0,0,0,0,0,0,1,
scooby_state_402dc3|22|-5 1,0,0,0,0,0,0,0,0,0,0,0,0,0,0,1,
scooby_state_402dc7|27|-1 0,0,0,0,1,0,0,0,0,0,0,0,0,0,0,1,
scooby_state_40307e|41|11 1,0,0,0,0,0,0,0,0,0,0,0,0,0,0,1,
scooby_state_40307e|41|15 1,0,0,0,0,0,0,0,0,0,0,0,0,0,0,1,
scooby_state_40307e|37|-10 1,0,0,0,0,0,0,0,0,0,0,0,0,0,0,1,
scooby_state_40307e|14|7 1,0,0,0,0,0,0,0,0,0,0,0,0,0,0,1,
scooby_state_40307e|40|2 1,0,0,0,0,0,0,0,0,0,0,0,0,0,0,1,
scooby_state_403000|0|-2 1,0,0,0,0,0,0,0,0,0,0,0,0,0,0,1,
scooby_state_40307e|29|5 1,0,0,0,0,0,0,0,0,0,0,0,0,0,0,1,
scooby_state_40307e|61|15 1,0,0,0,0,0,0,0,0,0,0,0,0,0,0,1,
scooby_state_40307e|38|17 1,0,0,0,0,0,0,0,0,0,0,0,0,0,0,1,
scooby_state_40307e|56|19 1,0,0,0,0,0,0,0,0,0,0,0,0,0,0,1,
scooby_state_40307e|27|21 1,0,0,0,0,0,0,0,0,0,0,0,0,0,0,1,
scooby_state_40307e|12|0 1,0,0,0,0,0,0,0,0,0,0,0,0,0,0,1,
scooby_state_40307e|46|-1 1,0,0,0,0,0,0,0,0,0,0,0,0,0,0,1,
scooby_state_403039|25|-2 0,0,1,0,0,0,0,0,0,0,0,0,0,0,0,1,
scooby_state_402dc7|52|-1 1,0,0,0,0,0,0,0,0,0,0,0,0,0,0,1,
scooby_state_40307e|53|7 1,0,0,0,0,0,0,0,0,0,0,0,0,0,0,1,
scooby_state_40307e|54|19 1,0,0,0,0,0,0,0,0,0,0,0,0,0,0,1,
scooby_state_40307e|5|4 1,0,0,0,0,0,0,0,0,0,0,0,0,0,0,1,
scooby_state_40307e|36|-1 1,0,0,0,0,0,0,0,0,0,0,0,0,0,0,1,
scooby_state_403039|0|-8 0,0,1,0,0,0,0,0,0,0,0,0,0,0,0,1,
scooby_state_40301c|19|0 0,0,1,0,0,0,0,0,0,0,0,0,0,0,0,1,
scooby_state_40307e|0|-1 1,0,0,0,0,0,0,0,0,0,0,0,0,0,0,1,
scooby_state_40307e|58|-5 1,0,0,0,0,0,0,0,0,0,0,0,0,0,0,1,
scooby_state_40307e|14|-13 1,0,0,0,0,0,0,0,0,0,0,0,0,0,0,1,
scooby_state_40307e|54|23 1,0,0,0,0,0,0,0,0,0,0,0,0,0,0,1,
scooby_state_40307e|52|-8 0,0,0,0,0,0,0,0,0,0,1,0,0,0,0,1,
scooby_state_40307e|33|33 1,0,0,0,0,0,0,0,0,0,0,0,0,0,0,1,
scooby_state_40307e|0|-6 1,0,0,0,0,0,0,0,0,0,0,0,0,0,0,1,
scooby_state_40307e|13|-1 1,0,0,0,0,0,0,0,0,0,0,0,0,0,0,1,
scooby_state_40307e|52|22 1,0,0,0,0,0,0,0,0,0,0,0,0,0,0,1,
scooby_state_40307e|48|-3 1,0,0,0,0,0,0,0,0,0,0,0,0,0,0,1,
scooby_state_402dc7|15|-1 0,0,0,0,1,0,0,0,0,0,0,0,0,0,0,1,
scooby_state_40307e|10|5 1,0,0,0,0,0,0,0,0,0,0,0,0,0,0,1,
scooby_state_40307e|28|15 1,0,0,0,0,0,0,0,0,0,0,0,0,0,0,1,
scooby_state_402dc3|2|-5 1,0,0,0,0,0,0,0,0,0,0,0,0,0,0,1,
scooby_state_40307e|26|-12 1,0,0,0,0,0,0,0,0,0,0,0,0,0,0,1,
scooby_state_40301c|45|-2 1,0,0,0,0,0,0,0,0,0,0,0,0,0,0,1,
scooby_state_40307e|44|8 1,0,0,0,0,0,0,0,0,0,0,0,0,0,0,1,
scooby_state_403012|17|-2 0,0,1,0,0,0,0,0,0,0,0,0,0,0,0,1,
scooby_state_402dc3|39|-5 1,0,0,0,0,0,0,0,0,0,0,0,0,0,0,1,
scooby_state_40307e|25|17 1,0,0,0,0,0,0,0,0,0,0,0,0,0,0,1,
scooby_state_40307e|43|21 1,0,0,0,0,0,0,0,0,0,0,0,0,0,0,1,
scooby_state_40307e|16|2 1,0,0,0,0,0,0,0,0,0,0,0,0,0,0,1,
scooby_state_40307e|19|19 1,0,0,0,0,0,0,0,0,0,0,0,0,0,0,1,
scooby_state_40307e|54|7 1,0,0,0,0,0,0,0,0,0,0,0,0,0,0,1,
scooby_state_40307e|34|-5 1,0,0,0,0,0,0,0,0,0,0,0,0,0,0,1,
scooby_state_402dc3|49|-5 1,0,0,0,0,0,0,0,0,0,0,0,0,0,0,1,
scooby_state_40307e|5|-3 1,0,0,0,0,0,0,0,0,0,0,0,0,0,0,1,
scooby_state_40307e|31|4 1,0,0,0,0,0,0,0,0,0,0,0,0,0,0,1,
scooby_state_40307e|41|-1 1,0,0,0,0,0,0,0,0,0,0,0,0,0,0,1,
scooby_state_40307e|48|8 1,0,0,0,0,0,0,0,0,0,0,0,0,0,0,1,
scooby_state_40307e|29|-12 1,0,0,0,0,0,0,0,0,0,0,0,0,0,0,1,
scooby_state_40307e|30|-31 1,0,0,0,0,0,0,0,0,0,0,0,0,0,0,1,
scooby_state_40307e|33|26 1,0,0,0,0,0,0,0,0,0,0,0,0,0,0,1,
scooby_state_40307e|1|-30 1,0,0,0,0,0,0,0,0,0,0,0,0,0,0,1,
scooby_state_40307e|11|2 1,0,0,0,0,0,0,0,0,0,0,0,0,0,0,1,
scooby_state_40307e|13|-50 1,0,0,0,0,0,0,0,0,0,0,0,0,0,0,1,
scooby_state_403012|46|-2 0,0,1,0,0,0,0,0,0,0,0,0,0,0,0,1,
scooby_state_40307e|51|-4 1,0,0,0,0,0,0,0,0,0,0,0,0,0,0,1,
scooby_state_40307e|42|33 1,0,0,0,0,0,0,0,0,0,0,0,0,0,0,1,
scooby_state_40307e|39|23 1,0,0,0,0,0,0,0,0,0,0,0,0,0,0,1,
scooby_state_40307e|47|-14 1,0,0,0,0,0,0,0,0,0,0,0,0,0,0,1,
scooby_state_40307e|52|5 1,0,0,0,0,0,0,0,0,0,0,0,0,0,0,1,
scooby_state_40307e|10|4 1,0,0,0,0,0,0,0,0,0,0,0,0,0,0,1,
scooby_state_40307e|51|13 1,0,0,0,0,0,0,0,0,0,0,0,0,0,0,1,
scooby_state_40307e|43|19 1,0,0,0,0,0,0,0,0,0,0,0,0,0,0,1,
scooby_state_40307e|47|10 1,0,0,0,0,0,0,0,0,0,0,0,0,0,0,1,
scooby_state_40307e|15|-33 1,0,0,0,0,0,0,0,0,0,0,0,0,0,0,1,
scooby_state_402dc7|0|-1 1,0,0,0,0,0,0,0,0,0,0,0,0,0,0,1,
scooby_state_40307e|4|-5 1,0,0,0,0,0,0,0,0,0,0,0,0,0,0,1,
scooby_state_40307e|50|-3 1,0,0,0,0,0,0,0,0,0,0,0,0,0,0,1,
scooby_state_403012|49|-2 0,0,1,0,0,0,0,0,0,0,0,0,0,0,0,1,
scooby_state_402dc3|52|-5 1,0,0,0,0,0,0,0,0,0,0,0,0,0,0,1,
scooby_state_40307e|19|13 1,0,0,0,0,0,0,0,0,0,0,0,0,0,0,1,
scooby_state_40307e|54|26 1,0,0,0,0,0,0,0,0,0,0,0,0,0,0,1,
scooby_state_40307e|63|2 1,0,0,0,0,0,0,0,0,0,0,0,0,0,0,1,
scooby_state_40307e|53|2 1,0,0,0,0,0,0,0,0,0,0,0,0,0,0,1,
scooby_state_403039|15|-2 0,0,1,0,0,0,0,0,0,0,0,0,0,0,0,1,
scooby_state_40307e|27|10 1,0,0,0,0,0,0,0,0,0,0,0,0,0,0,1,
scooby_state_40301c|4|-2 0,0,1,0,0,0,0,0,0,0,0,0,0,0,0,1,
scooby_state_40307e|57|8 1,0,0,0,0,0,0,0,0,0,0,0,0,0,0,1,
scooby_state_40307e|9|-5 1,0,0,0,0,0,0,0,0,0,0,0,0,0,0,1,
scooby_state_40307e|27|2 1,0,0,0,0,0,0,0,0,0,0,0,0,0,0,1,
scooby_state_40307e|33|23 1,0,0,0,0,0,0,0,0,0,0,0,0,0,0,1,
scooby_state_40307e|2|2 1,0,0,0,0,0,0,0,0,0,0,0,0,0,0,1,
scooby_state_40307e|55|5 1,0,0,0,0,0,0,0,0,0,0,0,0,0,0,1,
scooby_state_40307e|49|-5 1,0,0,0,0,0,0,0,0,0,0,0,0,0,0,1,
scooby_state_40307e|11|3 1,0,0,0,0,0,0,0,0,0,0,0,0,0,0,1,
scooby_state_40307e|48|10 1,0,0,0,0,0,0,0,0,0,0,0,0,0,0,1,
scooby_state_40307e|24|21 1,0,0,0,0,0,0,0,0,0,0,0,0,0,0,1,
scooby_state_40307e|63|58 1,0,0,0,0,0,0,0,0,0,0,0,0,0,0,1,
scooby_state_40307e|30|5 1,0,0,0,0,0,0,0,0,0,0,0,0,0,0,1,
scooby_state_40307e|62|5 1,0,0,0,0,0,0,0,0,0,0,0,0,0,0,1,
scooby_state_40307e|23|-1 1,0,0,0,0,0,0,0,0,0,0,0,0,0,0,1,
scooby_state_403039|42|-2 0,0,1,0,0,0,0,0,0,0,0,0,0,0,0,1,
scooby_state_40307e|23|-35 1,0,0,0,0,0,0,0,0,0,0,0,0,0,0,1,
scooby_state_40307e|36|-27 1,0,0,0,0,0,0,0,0,0,0,0,0,0,0,1,
scooby_state_40307e|9|0 1,0,0,0,0,0,0,0,0,0,0,0,0,0,0,1,
scooby_state_40307e|25|19 1,0,0,0,0,0,0,0,0,0,0,0,0,0,0,1,
scooby_state_40307e|55|13 1,0,0,0,0,0,0,0,0,0,0,0,0,0,0,1,
scooby_state_402dc7|51|-1 1,0,0,0,0,0,0,0,0,0,0,0,0,0,0,1,
scooby_state_40307e|50|4 1,0,0,0,0,0,0,0,0,0,0,0,0,0,0,1,
scooby_state_40307e|25|-7 1,0,0,0,0,0,0,0,0,0,0,0,0,0,0,1,
scooby_state_40307e|25|-6 1,0,0,0,0,0,0,0,0,0,0,0,0,0,0,1,
scooby_state_40307e|62|3 1,0,0,0,0,0,0,0,0,0,0,0,0,0,0,1,
scooby_state_40307e|23|-28 1,0,0,0,0,0,0,0,0,0,0,0,0,0,0,1,
scooby_state_40307e|32|3 1,0,0,0,0,0,0,0,0,0,0,0,0,0,0,1,
scooby_state_40301c|18|-2 0,0,1,0,0,0,0,0,0,0,0,0,0,0,0,1,
scooby_state_403012|59|-2 0,0,1,0,0,0,0,0,0,0,0,0,0,0,0,1,
scooby_state_40307e|18|5 1,0,0,0,0,0,0,0,0,0,0,0,0,0,0,1,
scooby_state_40307e|49|4 1,0,0,0,0,0,0,0,0,0,0,0,0,0,0,1,
scooby_state_40301c|24|-1 1,0,0,0,0,0,0,0,0,0,0,0,0,0,0,1,
scooby_state_40307e|62|38 1,0,0,0,0,0,0,0,0,0,0,0,0,0,0,1,
scooby_state_40307e|55|11 1,0,0,0,0,0,0,0,0,0,0,0,0,0,0,1,
scooby_state_40307e|37|-8 1,0,0,0,0,0,0,0,0,0,0,0,0,0,0,1,
scooby_state_40307e|7|-48 1,0,0,0,0,0,0,0,0,0,0,0,0,0,0,1,
scooby_state_40307e|45|-12 1,0,0,0,0,0,0,0,0,0,0,0,0,0,0,1,
scooby_state_40307e|24|-23 1,0,0,0,0,0,0,0,0,0,0,0,0,0,0,1,
scooby_state_40307e|21|3 1,0,0,0,0,0,0,0,0,0,0,0,0,0,0,1,
scooby_state_40307e|2|-3 1,0,0,0,0,0,0,0,0,0,0,0,0,0,0,1,
scooby_state_402dc7|63|0 1,0,0,0,0,0,0,0,0,0,0,0,0,0,0,1,
scooby_state_403012|12|-2 0,1,0,0,0,0,0,0,0,0,0,0,0,0,0,1,
scooby_state_40307e|17|-5 1,0,0,0,0,0,0,0,0,0,0,0,0,0,0,1,
scooby_state_40307e|8|6 1,0,0,0,0,0,0,0,0,0,0,0,0,0,0,1,
scooby_state_40307e|34|6 1,0,0,0,0,0,0,0,0,0,0,0,0,0,0,1,
scooby_state_40307e|6|-51 1,0,0,0,0,0,0,0,0,0,0,0,0,0,0,1,
scooby_state_40307e|47|6 1,0,0,0,0,0,0,0,0,0,0,0,0,0,0,1,
scooby_state_40307e|56|-7 1,0,0,0,0,0,0,0,0,0,0,0,0,0,0,1,
scooby_state_40307e|36|0 1,0,0,0,0,0,0,0,0,0,0,0,0,0,0,1,
scooby_state_40307e|44|-7 1,0,0,0,0,0,0,0,0,0,0,0,0,0,0,1,
scooby_state_402dc7|35|-1 0,0,0,0,0,0,0,0,1,0,0,0,0,0,0,1,
scooby_state_40307e|29|-14 1,0,0,0,0,0,0,0,0,0,0,0,0,0,0,1,
scooby_state_403012|31|-1 0,0,1,0,0,0,0,0,0,0,0,0,0,0,0,1,
scooby_state_403039|52|-2 0,0,1,0,0,0,0,0,0,0,0,0,0,0,0,1,
scooby_state_40307e|17|4 1,0,0,0,0,0,0,0,0,0,0,0,0,0,0,1,
scooby_state_40307e|60|7 1,0,0,0,0,0,0,0,0,0,0,0,0,0,0,1,
scooby_state_40307e|31|7 1,0,0,0,0,0,0,0,0,0,0,0,0,0,0,1,
scooby_state_40307e|30|15 1,0,0,0,0,0,0,0,0,0,0,0,0,0,0,1,
scooby_state_40307e|38|8 1,0,0,0,0,0,0,0,0,0,0,0,0,0,0,1,
scooby_state_40307e|41|19 1,0,0,0,0,0,0,0,0,0,0,0,0,0,0,1,
scooby_state_403012|27|-2 0,0,1,0,0,0,0,0,0,0,0,0,0,0,0,1,
scooby_state_40301c|6|-2 0,0,1,0,0,0,0,0,0,0,0,0,0,0,0,1,
scooby_state_402dc3|5|-5 1,0,0,0,0,0,0,0,0,0,0,0,0,0,0,1,
scooby_state_40307e|24|-1 1,0,0,0,0,0,0,0,0,0,0,0,0,0,0,1,
scooby_state_403012|1|-3 0,0,1,0,0,0,0,0,0,0,0,0,0,0,0,1,
scooby_state_402dc3|58|-5 1,0,0,0,0,0,0,0,0,0,0,0,0,0,0,1,
scooby_state_40307e|59|11 1,0,0,0,0,0,0,0,0,0,0,0,0,0,0,1,
scooby_state_403039|37|-2 0,0,0,0,0,0,0,0,0,0,0,1,0,0,0,1,
scooby_state_402dc7|23|-1 0,0,0,0,0,0,0,1,0,0,0,0,0,0,0,1,
scooby_state_40307e|15|14 1,0,0,0,0,0,0,0,0,0,0,0,0,0,0,1,
scooby_state_40307e|32|8 1,0,0,0,0,0,0,0,0,0,0,0,0,0,0,1,
scooby_state_40307e|17|-15 1,0,0,0,0,0,0,0,0,0,0,0,0,0,0,1,
scooby_state_403083|35|-27 1,0,0,0,0,0,0,0,0,0,0,0,0,0,0,1,
scooby_state_40307e|37|-26 1,0,0,0,0,0,0,0,0,0,0,0,0,0,0,1,
scooby_state_403083|8|-13 1,0,0,0,0,0,0,0,0,0,0,0,0,0,0,1,
scooby_state_40307e|23|-7 1,0,0,0,0,0,0,0,0,0,0,0,0,0,0,1,
scooby_state_40307e|32|-3 1,0,0,0,0,0,0,0,0,0,0,0,0,0,0,1,
scooby_state_40301c|3|-2 0,0,1,0,0,0,0,0,0,0,0,0,0,0,0,1,
scooby_state_402dc3|21|-5 1,0,0,0,0,0,0,0,0,0,0,0,0,0,0,1,
scooby_state_403083|62|-1 1,0,0,0,0,0,0,0,0,0,0,0,0,0,0,1,
scooby_state_40307e|9|-12 1,0,0,0,0,0,0,0,0,0,0,0,0,0,0,1,
scooby_state_40307e|4|-1 1,0,0,0,0,0,0,0,0,0,0,0,0,0,0,1,
scooby_state_40307e|29|10 1,0,0,0,0,0,0,0,0,0,0,0,0,0,0,1,
scooby_state_402dc3|48|-5 1,0,0,0,0,0,0,0,0,0,0,0,0,0,0,1,
scooby_state_403039|60|-2 0,0,1,0,0,0,0,0,0,0,0,0,0,0,0,1,
scooby_state_403039|5|-2 0,0,1,0,0,0,0,0,0,0,0,0,0,0,0,1,
scooby_state_40307e|18|4 1,0,0,0,0,0,0,0,0,0,0,0,0,0,0,1,
scooby_state_40307e|48|-8 1,0,0,0,0,0,0,0,0,0,0,0,0,0,0,1,
scooby_state_40307e|41|7 1,0,0,0,0,0,0,0,0,0,0,0,0,0,0,1,
scooby_state_40307e|30|23 1,0,0,0,0,0,0,0,0,0,0,0,0,0,0,1,
scooby_state_402dc7|49|-1 0,0,0,0,0,0,1,0,0,0,0,0,0,0,0,1,
scooby_state_402dc3|11|-5 1,0,0,0,0,0,0,0,0,0,0,0,0,0,0,1,
scooby_state_40307e|37|15 1,0,0,0,0,0,0,0,0,0,0,0,0,0,0,1,
scooby_state_40307e|21|-10 1,0,0,0,0,0,0,0,0,0,0,0,0,0,0,1,
scooby_state_40307e|30|12 1,0,0,0,0,0,0,0,0,0,0,0,0,0,0,1,
scooby_state_402dc3|4|-5 1,0,0,0,0,0,0,0,0,0,0,0,0,0,0,1,
scooby_state_40307e|26|-1 1,0,0,0,0,0,0,0,0,0,0,0,0,0,0,1,
scooby_state_402dc7|22|-1 0,0,0,0,0,0,0,0,1,0,0,0,0,0,0,1,
scooby_state_402dc3|14|-5 1,0,0,0,0,0,0,0,0,0,0,0,0,0,0,1,
scooby_state_40307e|14|3 1,0,0,0,0,0,0,0,0,0,0,0,0,0,0,1,
scooby_state_40307e|48|17 1,0,0,0,0,0,0,0,0,0,0,0,0,0,0,1,
scooby_state_40307e|8|7 1,0,0,0,0,0,0,0,0,0,0,0,0,0,0,1,
scooby_state_40307e|1|-1 1,0,0,0,0,0,0,0,0,0,0,0,0,0,0,1,
scooby_state_40301c|2|-2 0,0,1,0,0,0,0,0,0,0,0,0,0,0,0,1,
scooby_state_402dc3|41|-5 1,0,0,0,0,0,0,0,0,0,0,0,0,0,0,1,
scooby_state_40307e|63|17 1,0,0,0,0,0,0,0,0,0,0,0,0,0,0,1,
scooby_state_40307e|49|-7 1,0,0,0,0,0,0,0,0,0,0,0,0,0,0,1,
scooby_state_40307e|58|-3 1,0,0,0,0,0,0,0,0,0,0,0,0,0,0,1,
scooby_state_40307e|18|14 1,0,0,0,0,0,0,0,0,0,0,0,0,0,0,1,
scooby_state_403012|53|-2 0,0,1,0,0,0,0,0,0,0,0,0,0,0,0,1,
scooby_state_40307e|17|15 1,0,0,0,0,0,0,0,0,0,0,0,0,0,0,1,
scooby_state_40307e|55|-4 1,0,0,0,0,0,0,0,0,0,0,0,0,0,0,1,
scooby_state_40307e|47|-1 1,0,0,0,0,0,0,0,0,0,0,0,0,0,0,1,
scooby_state_40307e|43|-1 1,0,0,0,0,0,0,0,0,0,0,0,0,0,0,1,
scooby_state_40307e|58|11 1,0,0,0,0,0,0,0,0,0,0,0,0,0,0,1,
scooby_state_40307e|49|36 1,0,0,0,0,0,0,0,0,0,0,0,0,0,0,1,
scooby_state_402dc7|61|-1 0,0,0,0,0,0,0,1,0,0,0,0,0,0,0,1,
scooby_state_40307e|46|21 1,0,0,0,0,0,0,0,0,0,0,0,0,0,0,1,
scooby_state_40307e|38|3 1,0,0,0,0,0,0,0,0,0,0,0,0,0,0,1,
scooby_state_402dc3|31|-5 1,0,0,0,0,0,0,0,0,0,0,0,0,0,0,1,
scooby_state_40307e|31|-1 1,0,0,0,0,0,0,0,0,0,0,0,0,0,0,1,
scooby_state_40307e|42|13 1,0,0,0,0,0,0,0,0,0,0,0,0,0,0,1,
scooby_state_40307e|26|17 1,0,0,0,0,0,0,0,0,0,0,0,0,0,0,1,
scooby_state_40307e|36|4 1,0,0,0,0,0,0,0,0,0,0,0,0,0,0,1,
scooby_state_402dc7|10|-1 0,0,0,0,0,0,0,1,0,0,0,0,0,0,0,1,
scooby_state_403039|63|16 1,0,0,0,0,0,0,0,0,0,0,0,0,0,0,1,
scooby_state_403012|34|-4 0,0,1,0,0,0,0,0,0,0,0,0,0,0,0,1,
scooby_state_40307e|13|-28 1,0,0,0,0,0,0,0,0,0,0,0,0,0,0,1,
scooby_state_40307e|36|28 1,0,0,0,0,0,0,0,0,0,0,0,0,0,0,1,
scooby_state_403039|29|-2 0,0,1,0,0,0,0,0,0,0,0,0,0,0,0,1,
scooby_state_403039|9|-2 0,0,1,0,0,0,0,0,0,0,0,0,0,0,0,1,
scooby_state_402dc3|25|-5 1,0,0,0,0,0,0,0,0,0,0,0,0,0,0,1,
scooby_state_40307e|62|6 1,0,0,0,0,0,0,0,0,0,0,0,0,0,0,1,
scooby_state_402f82|62|1 1,0,0,0,0,0,0,0,0,0,0,0,0,0,0,1,
scooby_state_40307e|54|-3 1,0,0,0,0,0,0,0,0,0,0,0,0,0,0,1,
scooby_state_403039|59|-2 0,1,0,0,0,0,0,0,0,0,0,0,0,0,0,1,
scooby_state_402dc3|38|-5 1,0,0,0,0,0,0,0,0,0,0,0,0,0,0,1,
scooby_state_40307e|51|10 1,0,0,0,0,0,0,0,0,0,0,0,0,0,0,1,
scooby_state_40307e|52|17 1,0,0,0,0,0,0,0,0,0,0,0,0,0,0,1,
scooby_state_40307e|39|4 1,0,0,0,0,0,0,0,0,0,0,0,0,0,0,1,
scooby_state_40307e|55|4 1,0,0,0,0,0,0,0,0,0,0,0,0,0,0,1,
scooby_state_40307e|13|4 1,0,0,0,0,0,0,0,0,0,0,0,0,0,0,1,
scooby_state_40307e|20|2 1,0,0,0,0,0,0,0,0,0,0,0,0,0,0,1,
scooby_state_40301c|23|-2 0,0,1,0,0,0,0,0,0,0,0,0,0,0,0,1,
scooby_state_40307e|21|-6 1,0,0,0,0,0,0,0,0,0,0,0,0,0,0,1,
scooby_state_402dc7|40|-1 0,0,0,0,1,0,0,0,0,0,0,0,0,0,0,1,
scooby_state_403039|43|0 0,0,1,0,0,0,0,0,0,0,0,0,0,0,0,1,
scooby_state_403012|25|-2 0,0,1,0,0,0,0,0,0,0,0,0,0,0,0,1,
scooby_state_40307e|19|-4 1,0,0,0,0,0,0,0,0,0,0,0,0,0,0,1,
scooby_state_40307e|35|2 1,0,0,0,0,0,0,0,0,0,0,0,0,0,0,1,
scooby_state_40307e|12|7 1,0,0,0,0,0,0,0,0,0,0,0,0,0,0,1,
scooby_state_40301c|26|-1 0,0,1,0,0,0,0,0,0,0,0,0,0,0,0,1,
scooby_state_40307e|33|13 1,0,0,0,0,0,0,0,0,0,0,0,0,0,0,1,
scooby_state_40307e|7|-8 1,0,0,0,0,0,0,0,0,0,0,0,0,0,0,1,
scooby_state_40307e|8|-23 1,0,0,0,0,0,0,0,0,0,0,0,0,0,0,1,
scooby_state_40307e|22|3 1,0,0,0,0,0,0,0,0,0,0,0,0,0,0,1,
scooby_state_40307e|62|-1 1,0,0,0,0,0,0,0,0,0,0,0,0,0,0,1,
scooby_state_40307e|23|21 1,0,0,0,0,0,0,0,0,0,0,0,0,0,0,1,
scooby_state_403012|63|3 0,0,1,0,0,0,0,0,0,0,0,0,0,0,0,1,
scooby_state_40307e|1|-16 1,0,0,0,0,0,0,0,0,0,0,0,0,0,0,1,
scooby_state_40307e|56|10 1,0,0,0,0,0,0,0,0,0,0,0,0,0,0,1,
scooby_state_402dc7|24|-1 0,0,0,0,0,0,1,0,0,0,0,0,0,0,0,1,
scooby_state_40307e|10|-1 1,0,0,0,0,0,0,0,0,0,0,0,0,0,0,1,
scooby_state_40307e|28|8 1,0,0,0,0,0,0,0,0,0,0,0,0,0,0,1,
scooby_state_40307e|14|-37 1,0,0,0,0,0,0,0,0,0,0,0,0,0,0,1,
scooby_state_402dc3|1|-5 1,0,0,0,0,0,0,0,0,0,0,0,0,0,0,1,
scooby_state_40307e|46|7 1,0,0,0,0,0,0,0,0,0,0,0,0,0,0,1,
scooby_state_40307e|40|-10 1,0,0,0,0,0,0,0,0,0,0,0,0,0,0,1,
scooby_state_402f3c|60|4 1,0,0,0,0,0,0,0,0,0,0,0,0,0,0,1,
scooby_state_40307e|5|-53 1,0,0,0,0,0,0,0,0,0,0,0,0,0,0,1,
scooby_state_40307e|21|11 1,0,0,0,0,0,0,0,0,0,0,0,0,0,0,1,
scooby_state_40301c|3|-1 0,0,1,0,0,0,0,0,0,0,0,0,0,0,0,1,
scooby_state_40307e|47|37 1,0,0,0,0,0,0,0,0,0,0,0,0,0,0,1,
scooby_state_40307e|8|-19 1,0,0,0,0,0,0,0,0,0,0,0,0,0,0,1,
scooby_state_40307e|26|-37 1,0,0,0,0,0,0,0,0,0,0,0,0,0,0,1,
scooby_state_402dc7|36|-1 0,0,0,0,0,0,0,1,0,0,0,0,0,0,0,1,
scooby_state_40301c|29|-2 0,0,1,0,0,0,0,0,0,0,0,0,0,0,0,1,
scooby_state_40307e|33|4 1,0,0,0,0,0,0,0,0,0,0,0,0,0,0,1,
scooby_state_403012|58|-2 0,0,1,0,0,0,0,0,0,0,0,0,0,0,0,1,
scooby_state_40301c|20|-1 0,1,0,0,0,0,0,0,0,0,0,0,0,0,0,1,
scooby_state_40307e|21|-1 1,0,0,0,0,0,0,0,0,0,0,0,0,0,0,1,
scooby_state_402dc7|11|-1 0,0,0,0,0,0,1,0,0,0,0,0,0,0,0,1,
scooby_state_40307e|54|12 1,0,0,0,0,0,0,0,0,0,0,0,0,0,0,1,
scooby_state_40307e|55|-3 1,0,0,0,0,0,0,0,0,0,0,0,0,0,0,1,
scooby_state_40307e|35|4 1,0,0,0,0,0,0,0,0,0,0,0,0,0,0,1,
scooby_state_40307e|41|-4 1,0,0,0,0,0,0,0,0,0,0,0,0,0,0,1,
scooby_state_40307e|53|0 1,0,0,0,0,0,0,0,0,0,0,0,0,0,0,1,
scooby_state_40307e|14|8 1,0,0,0,0,0,0,0,0,0,0,0,0,0,0,1,
scooby_state_40307e|62|17 1,0,0,0,0,0,0,0,0,0,0,0,0,0,0,1,
scooby_state_403039|18|-2 0,0,0,0,0,0,0,0,0,0,0,1,0,0,0,1,
scooby_state_40307e|19|8 1,0,0,0,0,0,0,0,0,0,0,0,0,0,0,1,
scooby_state_40307e|9|-44 1,0,0,0,0,0,0,0,0,0,0,0,0,0,0,1,
scooby_state_403039|45|-2 0,0,0,0,0,0,0,0,0,0,0,1,0,0,0,1,
scooby_state_40307e|30|22 1,0,0,0,0,0,0,0,0,0,0,0,0,0,0,1,
scooby_state_40307e|15|-3 1,0,0,0,0,0,0,0,0,0,0,0,0,0,0,1,
scooby_state_40301c|34|-2 0,0,1,0,0,0,0,0,0,0,0,0,0,0,0,1,
scooby_state_40307e|35|10 1,0,0,0,0,0,0,0,0,0,0,0,0,0,0,1,
scooby_state_40307e|54|10 1,0,0,0,0,0,0,0,0,0,0,0,0,0,0,1,
scooby_state_40307e|47|5 1,0,0,0,0,0,0,0,0,0,0,0,0,0,0,1,
scooby_state_40307e|50|-5 1,0,0,0,0,0,0,0,0,0,0,0,0,0,0,1,
scooby_state_40307e|4|2 1,0,0,0,0,0,0,0,0,0,0,0,0,0,0,1,
scooby_state_40307e|52|-1 1,0,0,0,0,0,0,0,0,0,0,0,0,0,0,1,
scooby_state_403012|42|-2 0,0,1,0,0,0,0,0,0,0,0,0,0,0,0,1,
scooby_state_40307e|41|29 1,0,0,0,0,0,0,0,0,0,0,0,0,0,0,1,
scooby_state_40307e|41|-22 1,0,0,0,0,0,0,0,0,0,0,0,0,0,0,1,
scooby_state_40307e|9|8 1,0,0,0,0,0,0,0,0,0,0,0,0,0,0,1,
scooby_state_40307e|53|37 1,0,0,0,0,0,0,0,0,0,0,0,0,0,0,1,
scooby_state_40307e|47|19 1,0,0,0,0,0,0,0,0,0,0,0,0,0,0,1,
scooby_state_40307e|57|0 1,0,0,0,0,0,0,0,0,0,0,0,0,0,0,1,
scooby_state_40307e|29|-10 1,0,0,0,0,0,0,0,0,0,0,0,0,0,0,1,
scooby_state_40307e|35|-5 1,0,0,0,0,0,0,0,0,0,0,0,0,0,0,1,
scooby_state_403012|37|-1 0,0,1,0,0,0,0,0,0,0,0,0,0,0,0,1,
scooby_state_40307e|38|-1 1,0,0,0,0,0,0,0,0,0,0,0,0,0,0,1,
scooby_state_40301c|38|0 0,0,1,0,0,0,0,0,0,0,0,0,0,0,0,1,
scooby_state_40307e|51|0 1,0,0,0,0,0,0,0,0,0,0,0,0,0,0,1,
scooby_state_40307e|13|2 1,0,0,0,0,0,0,0,0,0,0,0,0,0,0,1,
scooby_state_40307e|59|26 1,0,0,0,0,0,0,0,0,0,0,0,0,0,0,1,
scooby_state_40307e|12|2 1,0,0,0,0,0,0,0,0,0,0,0,0,0,0,1,
[...]
scooby_state_40307e|39|-10 1,0,0,0,0,0,0,0,0,0,0,0,0,0,0,1,
scooby_state_40307e|23|13 1,0,0,0,0,0,0,0,0,0,0,0,0,0,0,1,
scooby_state_403039|36|-2 0,0,0,0,0,0,0,0,0,0,0,1,0,0,0,1,
scooby_state_40307e|32|-23 1,0,0,0,0,0,0,0,0,0,0,0,0,0,0,1,
scooby_state_40307e|5|5 1,0,0,0,0,0,0,0,0,0,0,0,0,0,0,1,
scooby_state_40307e|18|6 1,0,0,0,0,0,0,0,0,0,0,0,0,0,0,1,
scooby_state_40307e|63|5 1,0,0,0,0,0,0,0,0,0,0,0,0,0,0,1,
scooby_state_40307e|12|-5 1,0,0,0,0,0,0,0,0,0,0,0,0,0,0,1,
scooby_state_40307e|27|-7 1,0,0,0,0,0,0,0,0,0,0,0,0,0,0,1,
scooby_state_403039|34|-2 0,0,0,0,0,0,0,0,0,0,0,1,0,0,0,1,
scooby_state_402dc7|62|-1 0,0,0,0,0,0,1,0,0,0,0,0,0,0,0,1,
scooby_state_40307e|58|-1 1,0,0,0,0,0,0,0,0,0,0,0,0,0,0,1,
scooby_state_40307e|24|8 1,0,0,0,0,0,0,0,0,0,0,0,0,0,0,1,
scooby_state_40307e|23|11 1,0,0,0,0,0,0,0,0,0,0,0,0,0,0,1,
scooby_state_40307e|57|20 1,0,0,0,0,0,0,0,0,0,0,0,0,0,0,1,
scooby_state_40307a|1|0 1,0,0,0,0,0,0,0,0,0,0,0,0,0,0,1,
scooby_state_40307e|50|-7 1,0,0,0,0,0,0,0,0,0,0,0,0,0,0,1,
scooby_state_40307e|1|-8 1,0,0,0,0,0,0,0,0,0,0,0,0,0,0,1,
scooby_state_40307e|30|-3 1,0,0,0,0,0,0,0,0,0,0,0,0,0,0,1,
scooby_state_40301c|10|-2 0,0,1,0,0,0,0,0,0,0,0,0,0,0,0,1,
scooby_state_40307e|18|8 1,0,0,0,0,0,0,0,0,0,0,0,0,0,0,1,
scooby_state_403039|58|-2 0,0,1,0,0,0,0,0,0,0,0,0,0,0,0,1,
scooby_state_40307e|52|0 1,0,0,0,0,0,0,0,0,0,0,0,0,0,0,1,
scooby_state_40301c|8|-1 1,0,0,0,0,0,0,0,0,0,0,0,0,0,0,1,
scooby_state_40307e|41|-5 1,0,0,0,0,0,0,0,0,0,0,0,0,0,0,1,
scooby_state_403039|53|-2 0,0,1,0,0,0,0,0,0,0,0,0,0,0,0,1,
scooby_state_40307e|30|8 1,0,0,0,0,0,0,0,0,0,0,0,0,0,0,1,
scooby_state_40307e|20|-2 1,0,0,0,0,0,0,0,0,0,0,0,0,0,0,1,
scooby_state_40307e|31|-25 1,0,0,0,0,0,0,0,0,0,0,0,0,0,0,1,
scooby_state_40301c|25|-4 0,0,1,0,0,0,0,0,0,0,0,0,0,0,0,1,
scooby_state_40307e|10|10 1,0,0,0,0,0,0,0,0,0,0,0,0,0,0,1,
scooby_state_40307e|28|12 1,0,0,0,0,0,0,0,0,0,0,0,0,0,0,1,
scooby_state_402dc7|12|-1 0,0,0,0,0,1,0,0,0,0,0,0,0,0,0,1,
scooby_state_40307e|9|-8 1,0,0,0,0,0,0,0,0,0,0,0,0,0,0,1,
scooby_state_40307e|47|-3 1,0,0,0,0,0,0,0,0,0,0,0,0,0,0,1,
scooby_state_403012|11|-4 0,0,1,0,0,0,0,0,0,0,0,0,0,0,0,1,
scooby_state_40307e|24|-3 1,0,0,0,0,0,0,0,0,0,0,0,0,0,0,1,
scooby_state_402e04|56|1 1,0,0,0,0,0,0,0,0,0,0,0,0,0,0,1,
scooby_state_40307e|22|0 1,0,0,0,0,0,0,0,0,0,0,0,0,0,0,1,
scooby_state_402dc7|50|-1 0,0,0,0,0,1,0,0,0,0,0,0,0,0,0,1,
scooby_state_402f72|51|0 1,0,0,0,0,0,0,0,0,0,0,0,0,0,0,1,
scooby_state_403039|41|-2 0,0,1,0,0,0,0,0,0,0,0,0,0,0,0,1,
scooby_state_40307e|59|44 1,0,0,0,0,0,0,0,0,0,0,0,0,0,0,1,
scooby_state_402ff0|63|0 1,0,0,0,0,0,0,0,0,0,0,0,0,0,0,1,
scooby_state_40307e|23|-10 1,0,0,0,0,0,0,0,0,0,0,0,0,0,0,1,
scooby_state_40301c|51|-2 1,0,0,0,0,0,0,0,0,0,0,0,0,0,0,1,
scooby_state_403012|5|-22 0,0,1,0,0,0,0,0,0,0,0,0,0,0,0,1,
scooby_state_40307e|42|8 1,0,0,0,0,0,0,0,0,0,0,0,0,0,0,1,
scooby_state_40307e|56|8 1,0,0,0,0,0,0,0,0,0,0,0,0,0,0,1,
scooby_state_40307e|40|0 1,0,0,0,0,0,0,0,0,0,0,0,0,0,0,1,
scooby_state_40301c|13|-2 0,1,0,0,0,0,0,0,0,0,0,0,0,0,0,1,
scooby_state_403039|28|-2 1,0,0,0,0,0,0,0,0,0,0,0,0,0,0,1,
scooby_state_402dc7|34|-1 1,0,0,0,0,0,0,0,0,0,0,0,0,0,0,1,
scooby_state_40307e|28|-1 1,0,0,0,0,0,0,0,0,0,0,0,0,0,0,1,
scooby_state_40307e|48|44 1,0,0,0,0,0,0,0,0,0,0,0,0,0,0,1,
scooby_state_40307e|16|-1 1,0,0,0,0,0,0,0,0,0,0,0,0,0,0,1,
scooby_state_40307e|9|-11 1,0,0,0,0,0,0,0,0,0,0,0,0,0,0,1,
scooby_state_40308c|53|0 1,0,0,0,0,0,0,0,0,0,0,0,0,0,0,1,
scooby_state_403012|63|5 1,0,0,0,0,0,0,0,0,0,0,0,0,0,0,1,
scooby_state_40307e|10|2 1,0,0,0,0,0,0,0,0,0,0,0,0,0,0,1,
scooby_state_40307e|39|-24 1,0,0,0,0,0,0,0,0,0,0,0,0,0,0,1,
scooby_state_40307e|34|2 1,0,0,0,0,0,0,0,0,0,0,0,0,0,0,1,
scooby_state_402db2|54|-9 1,0,0,0,0,0,0,0,0,0,0,0,0,0,0,1,
scooby_state_40307e|33|2 1,0,0,0,0,0,0,0,0,0,0,0,0,0,0,1,
scooby_state_40301c|16|-2 0,0,1,0,0,0,0,0,0,0,0,0,0,0,0,1,
scooby_state_40307e|26|2 1,0,0,0,0,0,0,0,0,0,0,0,0,0,0,1,
scooby_state_40307e|25|-8 1,0,0,0,0,0,0,0,0,0,0,0,0,0,0,1,
scooby_state_40307e|52|12 1,0,0,0,0,0,0,0,0,0,0,0,0,0,0,1,
scooby_state_403012|24|-2 0,1,0,0,0,0,0,0,0,0,0,0,0,0,0,1,
scooby_state_40307e|52|8 1,0,0,0,0,0,0,0,0,0,0,0,0,0,0,1,
scooby_state_40307e|3|-1 1,0,0,0,0,0,0,0,0,0,0,0,0,0,0,1,
scooby_state_40307e|42|-7 1,0,0,0,0,0,0,0,0,0,0,0,0,0,0,1,
scooby_state_4030ff|54|1 1,0,0,0,0,0,0,0,0,0,0,0,0,0,0,1,
scooby_state_40307e|43|-3 1,0,0,0,0,0,0,0,0,0,0,0,0,0,0,1,
scooby_state_40307e|41|10 1,0,0,0,0,0,0,0,0,0,0,0,0,0,0,1,
scooby_state_40307e|28|-5 1,0,0,0,0,0,0,0,0,0,0,0,0,0,0,1,
scooby_state_40307e|15|8 1,0,0,0,0,0,0,0,0,0,0,0,0,0,0,1,
scooby_state_40307e|62|14 1,0,0,0,0,0,0,0,0,0,0,0,0,0,0,1,
scooby_state_40307e|15|-14 1,0,0,0,0,0,0,0,0,0,0,0,0,0,0,1,
scooby_state_40307e|51|8 1,0,0,0,0,0,0,0,0,0,0,0,0,0,0,1,
scooby_state_402dc3|28|-5 1,0,0,0,0,0,0,0,0,0,0,0,0,0,0,1,
scooby_state_403012|4|-1 0,0,1,0,0,0,0,0,0,0,0,0,0,0,0,1,
scooby_state_403012|51|-2 1,0,0,0,0,0,0,0,0,0,0,0,0,0,0,1,
scooby_state_40307e|3|-59 1,0,0,0,0,0,0,0,0,0,0,0,0,0,0,1,
scooby_state_403012|3|-2 0,1,0,0,0,0,0,0,0,0,0,0,0,0,0,1,
scooby_state_40307e|13|-16 1,0,0,0,0,0,0,0,0,0,0,0,0,0,0,1,
scooby_state_40307e|10|3 1,0,0,0,0,0,0,0,0,0,0,0,0,0,0,1,
scooby_state_40307e|21|6 1,0,0,0,0,0,0,0,0,0,0,0,0,0,0,1,
scooby_state_40301c|46|-2 0,0,1,0,0,0,0,0,0,0,0,0,0,0,0,1,
scooby_state_40307e|2|-1 1,0,0,0,0,0,0,0,0,0,0,0,0,0,0,1,
scooby_state_40307e|19|10 1,0,0,0,0,0,0,0,0,0,0,0,0,0,0,1,
scooby_state_40307e|54|-1 1,0,0,0,0,0,0,0,0,0,0,0,0,0,0,1,
scooby_state_40307e|24|7 1,0,0,0,0,0,0,0,0,0,0,0,0,0,0,1,
scooby_state_402dc3|8|-5 1,0,0,0,0,0,0,0,0,0,0,0,0,0,0,1,
scooby_state_403039|22|-2 0,0,1,0,0,0,0,0,0,0,0,0,0,0,0,1,
scooby_state_40307e|57|10 1,0,0,0,0,0,0,0,0,0,0,0,0,0,0,1,
scooby_state_40301c|38|-2 0,0,1,0,0,0,0,0,0,0,0,0,0,0,0,1,
scooby_state_40307e|20|19 1,0,0,0,0,0,0,0,0,0,0,0,0,0,0,1,
scooby_state_40307e|11|5 1,0,0,0,0,0,0,0,0,0,0,0,0,0,0,1,
scooby_state_40307e|39|-5 1,0,0,0,0,0,0,0,0,0,0,0,0,0,0,1,
scooby_state_40307e|37|-12 1,0,0,0,0,0,0,0,0,0,0,0,0,0,0,1,
scooby_state_40301c|53|-1 0,0,1,0,0,0,0,0,0,0,0,0,0,0,0,1,
scooby_state_40307e|48|-1 1,0,0,0,0,0,0,0,0,0,0,0,0,0,0,1,
scooby_state_402dc7|37|-1 0,0,0,0,0,0,1,0,0,0,0,0,0,0,0,1,
scooby_state_40307e|51|34 1,0,0,0,0,0,0,0,0,0,0,0,0,0,0,1,
scooby_state_40307e|36|-12 1,0,0,0,0,0,0,0,0,0,0,0,0,0,0,1,
scooby_state_40307e|7|-1 1,0,0,0,0,0,0,0,0,0,0,0,0,0,0,1,
scooby_state_40307e|38|-6 1,0,0,0,0,0,0,0,0,0,0,0,0,0,0,1,
scooby_state_403012|10|-2 0,0,1,0,0,0,0,0,0,0,0,0,0,0,0,1,
scooby_state_40307e|22|4 1,0,0,0,0,0,0,0,0,0,0,0,0,0,0,1,
scooby_state_40307e|3|-13 1,0,0,0,0,0,0,0,0,0,0,0,0,0,0,1,
scooby_state_40307e|59|10 1,0,0,0,0,0,0,0,0,0,0,0,0,0,0,1,
scooby_state_403012|27|-1 1,0,0,0,0,0,0,0,0,0,0,0,0,0,0,1,
scooby_state_402dc7|26|-1 1,0,0,0,0,0,0,0,0,0,0,0,0,0,0,1,
scooby_state_40307e|38|2 1,0,0,0,0,0,0,0,0,0,0,0,0,0,0,1,
scooby_state_40307e|8|2 1,0,0,0,0,0,0,0,0,0,0,0,0,0,0,1,
scooby_state_40307e|30|17 1,0,0,0,0,0,0,0,0,0,0,0,0,0,0,1,
scooby_state_40307e|49|-13 1,0,0,0,0,0,0,0,0,0,0,0,0,0,0,1,
scooby_state_402dc3|15|-5 1,0,0,0,0,0,0,0,0,0,0,0,0,0,0,1,
scooby_state_402dc7|1|-1 1,0,0,0,0,0,0,0,0,0,0,0,0,0,0,1,
scooby_state_40301c|53|-2 0,0,1,0,0,0,0,0,0,0,0,0,0,0,0,1,
scooby_state_40307e|2|-50 1,0,0,0,0,0,0,0,0,0,0,0,0,0,0,1,
scooby_state_40307e|63|0 1,0,0,0,0,0,0,0,0,0,0,0,0,0,0,1,
scooby_state_40307e|23|-5 1,0,0,0,0,0,0,0,0,0,0,0,0,0,0,1,
scooby_state_40307e|47|-12 1,0,0,0,0,0,0,0,0,0,0,0,0,0,0,1,
scooby_state_402dc7|53|-1 0,0,0,0,1,0,0,0,0,0,0,0,0,0,0,1,
scooby_state_40301c|25|-2 0,0,1,0,0,0,0,0,0,0,0,0,0,0,0,1,
scooby_state_40301c|36|-2 0,0,1,0,0,0,0,0,0,0,0,0,0,0,0,1,
scooby_state_40307e|60|10 1,0,0,0,0,0,0,0,0,0,0,0,0,0,0,1,
scooby_state_40307e|5|3 1,0,0,0,0,0,0,0,0,0,0,0,0,0,0,1,
scooby_state_402f85|41|-1 1,0,0,0,0,0,0,0,0,0,0,0,0,0,0,1,
scooby_state_40307e|62|0 1,0,0,0,0,0,0,0,0,0,0,0,0,0,0,1,
scooby_state_40307e|56|-5 1,0,0,0,0,0,0,0,0,0,0,0,0,0,0,1,
scooby_state_40307e|44|-1 1,0,0,0,0,0,0,0,0,0,0,0,0,0,0,1,
scooby_state_40307e|39|-17 1,0,0,0,0,0,0,0,0,0,0,0,0,0,0,1,
scooby_state_40307e|29|-3 1,0,0,0,0,0,0,0,0,0,0,0,0,0,0,1,
scooby_state_40307e|41|8 1,0,0,0,0,0,0,0,0,0,0,0,0,0,0,1,
scooby_state_40307e|28|21 1,0,0,0,0,0,0,0,0,0,0,0,0,0,0,1,
scooby_state_40307e|33|17 1,0,0,0,0,0,0,0,0,0,0,0,0,0,0,1,
scooby_state_403012|26|-2 0,0,1,0,0,0,0,0,0,0,0,0,0,0,0,1,
scooby_state_40307e|51|-1 1,0,0,0,0,0,0,0,0,0,0,0,0,0,0,1,
scooby_state_40307e|15|-6 1,0,0,0,0,0,0,0,0,0,0,0,0,0,0,1,
scooby_state_40307e|59|-2 1,0,0,0,0,0,0,0,0,0,0,0,0,0,0,1,
scooby_state_40307e|21|-34 1,0,0,0,0,0,0,0,0,0,0,0,0,0,0,1,
scooby_state_40307e|17|-1 1,0,0,0,0,0,0,0,0,0,0,0,0,0,0,1,
scooby_state_40307e|43|17 1,0,0,0,0,0,0,0,0,0,0,0,0,0,0,1,
scooby_state_403012|14|-2 0,0,1,0,0,0,0,0,0,0,0,0,0,0,0,1,
scooby_state_40307e|27|26 1,0,0,0,0,0,0,0,0,0,0,0,0,0,0,1,
scooby_state_403012|23|-2 0,1,0,0,0,0,0,0,0,0,0,0,0,0,0,1,
scooby_state_403039|21|0 0,0,1,0,0,0,0,0,0,0,0,0,0,0,0,1,
scooby_state_403012|18|-2 0,1,0,0,0,0,0,0,0,0,0,0,0,0,0,1,
scooby_state_40307e|63|31 1,0,0,0,0,0,0,0,0,0,0,0,0,0,0,1,
scooby_state_40301c|5|-1 0,0,1,0,0,0,0,0,0,0,0,0,0,0,0,1,
scooby_state_40307e|6|-3 1,0,0,0,0,0,0,0,0,0,0,0,0,0,0,1,
scooby_state_40307e|22|-1 1,0,0,0,0,0,0,0,0,0,0,0,0,0,0,1,
scooby_state_40307e|50|6 1,0,0,0,0,0,0,0,0,0,0,0,0,0,0,1,
scooby_state_40307e|48|-5 1,0,0,0,0,0,0,0,0,0,0,0,0,0,0,1,
scooby_state_40301c|12|-1 0,0,1,0,0,0,0,0,0,0,0,0,0,0,0,1,
scooby_state_40307e|55|0 1,0,0,0,0,0,0,0,0,0,0,0,0,0,0,1,
scooby_state_40307e|45|-6 1,0,0,0,0,0,0,0,0,0,0,0,0,0,0,1,
scooby_state_402dc3|18|-5 1,0,0,0,0,0,0,0,0,0,0,0,0,0,0,1,
scooby_state_403012|22|-8 0,0,1,0,0,0,0,0,0,0,0,0,0,0,0,1,
scooby_state_40307e|42|-21 1,0,0,0,0,0,0,0,0,0,0,0,0,0,0,1,
scooby_state_40307e|33|-24 1,0,0,0,0,0,0,0,0,0,0,0,0,0,0,1,
scooby_state_40301c|19|-2 1,0,0,0,0,0,0,0,0,0,0,0,0,0,0,1,
scooby_state_40307e|29|0 1,0,0,0,0,0,0,0,0,0,0,0,0,0,0,1,
scooby_state_40307e|61|24 1,0,0,0,0,0,0,0,0,0,0,0,0,0,0,1,
scooby_state_40307e|57|19 1,0,0,0,0,0,0,0,0,0,0,0,0,0,0,1,
scooby_state_403012|54|-2 0,0,1,0,0,0,0,0,0,0,0,0,0,0,0,1,
scooby_state_40307e|46|0 1,0,0,0,0,0,0,0,0,0,0,0,0,0,0,1,
scooby_state_40307e|27|-6 1,0,0,0,0,0,0,0,0,0,0,0,0,0,0,1,
scooby_state_402dc0|55|1 1,0,0,0,0,0,0,0,0,0,0,0,0,0,0,1,
scooby_state_40307e|9|-21 1,0,0,0,0,0,0,0,0,0,0,0,0,0,0,1,
scooby_state_403012|50|-2 0,0,1,0,0,0,0,0,0,0,0,0,0,0,0,1,
scooby_state_40307e|55|2 1,0,0,0,0,0,0,0,0,0,0,0,0,0,0,1,
scooby_state_403039|57|-2 1,0,0,0,0,0,0,0,0,0,0,0,0,0,0,1,
scooby_state_40307e|19|6 1,0,0,0,0,0,0,0,0,0,0,0,0,0,0,1,
scooby_state_40301c|0|-2 0,0,1,0,0,0,0,0,0,0,0,0,0,0,0,1,
scooby_state_40307e|43|2 1,0,0,0,0,0,0,0,0,0,0,0,0,0,0,1,
scooby_state_40307e|8|-30 1,0,0,0,0,0,0,0,0,0,0,0,0,0,0,1,
scooby_state_40307e|11|8 1,0,0,0,0,0,0,0,0,0,0,0,0,0,0,1,
scooby_state_40307e|32|0 1,0,0,0,0,0,0,0,0,0,0,0,0,0,0,1,
scooby_state_40301c|11|-2 0,0,1,0,0,0,0,0,0,0,0,0,0,0,0,1,
scooby_state_40307e|27|-32 1,0,0,0,0,0,0,0,0,0,0,0,0,0,0,1,
scooby_state_40307e|35|30 1,0,0,0,0,0,0,0,0,0,0,0,0,0,0,1,
scooby_state_40307e|14|13 1,0,0,0,0,0,0,0,0,0,0,0,0,0,0,1,
scooby_state_403124|15|0 1,0,0,0,0,0,0,0,0,0,0,0,0,0,0,1,
scooby_state_403104|4|1 1,0,0,0,0,0,0,0,0,0,0,0,0,0,0,1,
scooby_state_40307e|53|12 1,0,0,0,0,0,0,0,0,0,0,0,0,0,0,1,
scooby_state_40307e|48|2 1,0,0,0,0,0,0,0,0,0,0,0,0,0,0,1,
scooby_state_40307e|6|-7 1,0,0,0,0,0,0,0,0,0,0,0,0,0,0,1,
scooby_state_40307e|23|-17 1,0,0,0,0,0,0,0,0,0,0,0,0,0,0,1,
scooby_state_40307e|56|2 1,0,0,0,0,0,0,0,0,0,0,0,0,0,0,1,
scooby_state_40307e|17|-21 1,0,0,0,0,0,0,0,0,0,0,0,0,0,0,1,
scooby_state_40307e|35|11 1,0,0,0,0,0,0,0,0,0,0,0,0,0,0,1,
scooby_state_402dc3|32|-5 1,0,0,0,0,0,0,0,0,0,0,0,0,0,0,1,
scooby_state_40307e|44|0 1,0,0,0,0,0,0,0,0,0,0,0,0,0,0,1,
scooby_state_40307e|5|-30 1,0,0,0,0,0,0,0,0,0,0,0,0,0,0,1,
scooby_state_40307e|22|5 1,0,0,0,0,0,0,0,0,0,0,0,0,0,0,1,
scooby_state_40307e|58|53 1,0,0,0,0,0,0,0,0,0,0,0,0,0,0,1,
scooby_state_403039|4|-2 1,0,0,0,0,0,0,0,0,0,0,0,0,0,0,1,
scooby_state_40307e|48|-6 1,0,0,0,0,0,0,0,0,0,0,0,0,0,0,1,
scooby_state_40307e|53|29 1,0,0,0,0,0,0,0,0,0,0,0,0,0,0,1,
scooby_state_40307e|17|-30 1,0,0,0,0,0,0,0,0,0,0,0,0,0,0,1,
scooby_state_402dc7|38|-1 0,0,0,0,0,1,0,0,0,0,0,0,0,0,0,1,
scooby_state_40307e|11|-11 1,0,0,0,0,0,0,0,0,0,0,0,0,0,0,1,
scooby_state_402f3c|42|-13 1,0,0,0,0,0,0,0,0,0,0,0,0,0,0,1,
scooby_state_40307e|1|-5 1,0,0,0,0,0,0,0,0,0,0,0,0,0,0,1,
scooby_state_40307e|54|8 1,0,0,0,0,0,0,0,0,0,0,0,0,0,0,1,
scooby_state_403012|43|-8 0,0,1,0,0,0,0,0,0,0,0,0,0,0,0,1,
scooby_state_40307e|61|-1 1,0,0,0,0,0,0,0,0,0,0,0,0,0,0,1,
scooby_state_40307e|45|0 1,0,0,0,0,0,0,0,0,0,0,0,0,0,0,1,
scooby_state_40307e|59|-4 1,0,0,0,0,0,0,0,0,0,0,0,0,0,0,1,
scooby_state_40301c|33|-4 1,0,0,0,0,0,0,0,0,0,0,0,0,0,0,1,
scooby_state_40307e|9|-4 1,0,0,0,0,0,0,0,0,0,0,0,0,0,0,1,
scooby_state_403012|16|-6 0,0,1,0,0,0,0,0,0,0,0,0,0,0,0,1,
scooby_state_40307e|32|7 1,0,0,0,0,0,0,0,0,0,0,0,0,0,0,1,
scooby_state_40307e|27|-10 1,0,0,0,0,0,0,0,0,0,0,0,0,0,0,1,
scooby_state_402f40|61|1 1,0,0,0,0,0,0,0,0,0,0,0,0,0,0,1,
scooby_state_402dc7|25|0 1,0,0,0,0,0,0,0,0,0,0,0,0,0,0,1,
scooby_state_40307e|54|2 1,0,0,0,0,0,0,0,0,0,0,0,0,0,0,1,
scooby_state_402dc7|2|-1 0,0,0,0,1,0,0,0,0,0,0,0,0,0,0,1,
scooby_state_402dc3|4|0 1,0,0,0,0,0,0,0,0,0,0,0,0,0,0,1,
scooby_state_40307e|12|-3 1,0,0,0,0,0,0,0,0,0,0,0,0,0,0,1,

scooby_action_-3_deg_dist 0,49,30,0,74,0,59,0,0,0,0,0,0,0,0,0,
scooby_action_-1_deg_dist 0,59,28,0,70,0,348,0,0,0,0,0,0,0,0,0,
scooby_action_22_deg_dist 0,71,10,0,17,0,10,0,0,0,0,0,0,0,0,0,
scooby_action_12_deg_dist 0,37,11,0,24,0,22,0,0,0,0,0,0,0,0,0,
scooby_action_11_deg_dist 0,37,10,0,26,0,17,0,0,0,0,0,0,0,0,0,
scooby_action_23_deg_dist 0,46,8,0,18,0,20,0,0,0,0,0,0,0,0,0,
scooby_action_10_deg_dist 0,68,7,0,17,0,21,0,0,0,0,0,0,0,0,0,
scooby_action_32_deg_dist 0,60,4,0,4,0,0,0,0,0,0,0,0,0,0,0,
scooby_action_5_deg_dist 0,30,13,0,28,0,28,0,0,0,0,0,0,0,0,0,
scooby_action_30_deg_dist 0,66,7,0,10,0,13,0,0,0,0,0,0,0,0,0,
scooby_action_4_deg_dist 0,218,34,0,27,0,25,0,0,0,0,0,0,0,0,0,
scooby_action_3_deg_dist 0,54,14,0,21,0,30,0,0,0,0,0,0,0,0,0,
scooby_action_1_deg_dist 0,660,330,0,667,0,1853,0,0,0,0,0,0,0,0,0,

scooby_track_called 5410
scooby_track_same_address 440
scooby_track_evict 4714

scooby_reward_demand_called 5410
scooby_reward_demand_pt_not_found 2824
scooby_reward_demand_pt_found 2586
scooby_reward_demand_pt_found_total 2586
scooby_reward_demand_has_reward 0
scooby_reward_train_called 2019
scooby_reward_assign_reward_called 4895
scooby_reward_no_pref 0
scooby_reward_incorrect 2019
scooby_reward_correct_untimely 1475
scooby_reward_correct_timely 1111
scooby_reward_out_of_bounds 290
scooby_reward_tracker_hit 0

scooby_reward_none_low_bw 0
scooby_reward_none_high_bw 0
scooby_reward_incorrect_low_bw 2019
scooby_reward_incorrect_high_bw 0
scooby_reward_correct_untimely_low_bw 1475
scooby_reward_correct_untimely_high_bw 0
scooby_reward_correct_timely_low_bw 1111
scooby_reward_correct_timely_high_bw 0
scooby_reward_out_of_bounds_low_bw 290
scooby_reward_out_of_bounds_high_bw 0
scooby_reward_tracker_hit_low_bw 0
scooby_reward_tracker_hit_high_bw 0

scooby_reward_1 0,1065,1130,962,62,0,
scooby_reward_3 0,86,0,0,5,0,
scooby_reward_4 0,154,86,10,10,0,
scooby_reward_5 0,90,1,0,2,0,
scooby_reward_10 0,60,0,0,21,0,
scooby_reward_11 0,69,0,0,11,0,
scooby_reward_12 0,79,0,0,14,0,
scooby_reward_22 0,54,0,0,42,0,
scooby_reward_23 0,59,0,0,24,0,
scooby_reward_30 0,41,0,0,37,0,
scooby_reward_32 0,16,0,0,44,0,
scooby_reward_-1 0,165,258,40,7,0,
scooby_reward_-3 0,81,0,99,11,0,
scooby_reward_-6 0,0,0,0,0,0,
scooby_reward_0 0,0,0,0,0,0,

scooby_train_called 4713
scooby_train_compute_reward 2019

scooby_register_fill_called 5762
scooby_register_fill_set 1706
scooby_register_fill_set_total 1706

scooby_register_prefetch_hit_called 10955
scooby_register_prefetch_hit_set 4774
scooby_register_prefetch_hit_set_total 4774

scooby_pref_issue_scooby 18217

learning_engine_featurewise.action.called 5410
learning_engine_featurewise.action.explore 10
learning_engine_featurewise.action.exploit 5400
learning_engine_featurewise.action.fallback 0
learning_engine_featurewise.action.dyn_fallback_saved_bw 0
learning_engine_featurewise.action.dyn_fallback_saved_bw_acc 0
learning_engine_featurewise.action.index_1_explored 1
learning_engine_featurewise.action.index_1_exploited 3509
learning_engine_featurewise.action.index_3_explored 2
learning_engine_featurewise.action.index_3_exploited 117
learning_engine_featurewise.action.index_4_explored 0
learning_engine_featurewise.action.index_4_exploited 304
learning_engine_featurewise.action.index_5_explored 2
learning_engine_featurewise.action.index_5_exploited 97
learning_engine_featurewise.action.index_10_explored 0
learning_engine_featurewise.action.index_10_exploited 113
learning_engine_featurewise.action.index_11_explored 0
learning_engine_featurewise.action.index_11_exploited 90
learning_engine_featurewise.action.index_12_explored 0
learning_engine_featurewise.action.index_12_exploited 94
learning_engine_featurewise.action.index_22_explored 0
learning_engine_featurewise.action.index_22_exploited 108
learning_engine_featurewise.action.index_23_explored 0
learning_engine_featurewise.action.index_23_exploited 92
learning_engine_featurewise.action.index_30_explored 0
learning_engine_featurewise.action.index_30_exploited 96
learning_engine_featurewise.action.index_32_explored 4
learning_engine_featurewise.action.index_32_exploited 64
learning_engine_featurewise.action.index_-1_explored 1
learning_engine_featurewise.action.index_-1_exploited 504
learning_engine_featurewise.action.index_-3_explored 0
learning_engine_featurewise.action.index_-3_exploited 212
learning_engine_featurewise.action.index_-6_explored 0
learning_engine_featurewise.action.index_-6_exploited 0
learning_engine_featurewise.action.index_0_explored 0
learning_engine_featurewise.action.index_0_exploited 0
learning_engine_featurewise.learn.called 4713
learning_engine_featurewise.learn.su_skip_PC 0
learning_engine_featurewise.learn.su_skip_PC_Delta 0

learning_engine_featurewise.q_value_histogram.bucket_0 0
learning_engine_featurewise.q_value_histogram.bucket_1 0
learning_engine_featurewise.q_value_histogram.bucket_2 0
learning_engine_featurewise.q_value_histogram.bucket_3 0
learning_engine_featurewise.q_value_histogram.bucket_4 1924
learning_engine_featurewise.q_value_histogram.bucket_5 1621
learning_engine_featurewise.q_value_histogram.bucket_6 1855
learning_engine_featurewise.q_value_histogram.bucket_7 0

learning_engine_featurewise.consensus.total 5400
learning_engine_featurewise.consensus.feature_align_PC 5279
learning_engine_featurewise.consensus.feature_align_PC_ratio 0.98
learning_engine_featurewise.consensus.feature_align_PC_Delta 4646
learning_engine_featurewise.consensus.feature_align_PC_Delta_ratio 0.86
learning_engine_featurewise.consensus.feature_align_all 4525
learning_engine_featurewise.consensus.feature_align_all_ratio 0.84

learning_engine_featurewise.feature_PC_min_weight 1000000.00000000
learning_engine_featurewise.feature_PC_max_weight 0.00000000
learning_engine_featurewise.feature_PC_Delta_min_weight 1000000.00000000
learning_engine_featurewise.feature_PC_Delta_max_weight 0.00000000
unique_pcs 25
unique_pages 207
unique_trigger_pcs 15
total_bitmaps_seen 0
unique_bitmaps_seen 0

scooby_bw_epochs 21120
scooby_bw_level_0 21120
scooby_bw_level_1 0
scooby_bw_level_2 0
scooby_bw_level_3 0

scooby_ipc_epochs 0
scooby_ipc_level_0 0
scooby_ipc_level_1 0
scooby_ipc_level_2 0
scooby_ipc_level_3 0

scooby_cache_acc_epochs 5265
scooby_cache_acc_level_0 3384
scooby_cache_acc_level_1 553
scooby_cache_acc_level_2 356
scooby_cache_acc_level_3 275
scooby_cache_acc_level_4 165
scooby_cache_acc_level_5 232
scooby_cache_acc_level_6 112
scooby_cache_acc_level_7 80
scooby_cache_acc_level_8 27
scooby_cache_acc_level_9 81

Channel_0_RQ_row_buffer_hit 4733
Channel_0_RQ_row_buffer_miss 2353
Channel_0_WQ_row_buffer_hit 0
Channel_0_WQ_row_buffer_miss 0
Channel_0_WQ_full 0
Channel_0_dbus_congested 0

avg_congested_cycle 0

DRAM_bw_pochs 21120
DRAM_bw_level_0 21120
DRAM_bw_level_1 0
DRAM_bw_level_2 0
DRAM_bw_level_3 0
