*************************************************
   ChampSim Multicore Out-of-Order Simulator
   Last compiled: Dec  3 2023 14:43:31
*************************************************
parsing config file: /home/pcineverdies/Projects/RM4ES/Prefetcher-Research-Project/config/sp_ghb.ini

trace_0 /home/pcineverdies/Projects/RM4ES/Prefetcher-Research-Project/traces/605.mcf_s-472B.champsimtrace.xz
adding L2C_PREFETCHER: SP GHB
Initialize SHIP state
warmup_instructions 100000
simulation_instructions 50000000
champsim_seed 223
measure_ipc 0
measure_ipc_epoch 1000
measure_dram_bw 1
measure_dram_bw_epoch 256
measure_cache_acc 1
measure_cache_acc_epoch 1024
l1d_perfect 0
l2c_perfect 0
llc_perfect 0
l1d_semi_perfect 0
l2c_semi_perfect 0
llc_semi_perfect 0
semi_perfect_cache_page_buffer_size 64

num_cpus 1
cpu_freq 550
dram_io_freq 2400
page_size 4096
block_size 64
max_read_per_cycle 8
max_fill_per_cycle 1
dram_channels 1
log2_dram_channels 0
dram_ranks 1
dram_banks 8
dram_rows 65536
dram_columns 128
dram_row_size 8
dram_size 4096
dram_pages 1048576

fetch_width 2
decode_width 2
exec_width 2
lq_width 1
sq_width 1
retire_width 5
scheduler_size 1
branch_mispredict_penalty 1
rob_size 256
lq_size 72
sq_size 56
num_instr_destinations_sparc 4
num_instr_destinations 2
num_instr_sources 4

itlb_set 1024
itlb_way 1024
itlb_rq_size 16
itlb_wq_size 16
itlb_pq_size 0
itlb_mshr_size 8
itlb_latency 0

dtlb_set 1024
dtlb_way 1024
dtlb_rq_size 32
dtlb_wq_size 32
dtlb_pq_size 0
dtlb_mshr_size 8
dtlb_latency 1

stlb_set 1024
stlb_way 1024
stlb_rq_size 32
stlb_wq_size 32
stlb_pq_size 0
stlb_mshr_size 16
stlb_latency 0

l1i_size 32
l1i_set 64
l1i_way 8
l1i_rq_size 64
l1i_wq_size 64
l1i_pq_size 32
l1i_mshr_size 8
l1i_latency 4

l1d_size 48
l1d_set 64
l1d_way 12
l1d_rq_size 64
l1d_wq_size 64
l1d_pq_size 8
l1d_mshr_size 16
l1d_latency 5

l2c_size 512
l2c_set 1024
l2c_way 8
l2c_rq_size 32
l2c_wq_size 32
l2c_pq_size 16
l2c_mshr_size 32
l2c_latency 10

llc_size 2048
llc_set 2048
llc_way 16
llc_rq_size 32
llc_wq_size 32
llc_pq_size 32
llc_mshr_size 64
llc_latency 20

dram_channel_width 8
dram_wq_size 64
dram_rq_size 64
tRP 15
tRCD 15
tCAS 12.5
dram_dbus_turn_around_time 4
dram_write_high_wm 56
dram_write_low_wm 48
min_dram_writes_per_switch 16
dram_mtps 2400
dram_dbus_return_time 1



Warmup complete CPU  0 instructions:     100001 cycles:     164435 (Simulation time: 0 hr 0 min 0 sec) 

Heartbeat CPU  0 instructions:    1000000 cycles:    9836377 heartbeat IPC: 0.10166 cumulative IPC: 0.09305 (Simulation time: 0 hr 0 min 3 sec) 
Heartbeat CPU  0 instructions:    2000000 cycles:   24297511 heartbeat IPC: 0.06915 cumulative IPC: 0.07873 (Simulation time: 0 hr 0 min 7 sec) 
Heartbeat CPU  0 instructions:    3000000 cycles:   35172377 heartbeat IPC: 0.09196 cumulative IPC: 0.08284 (Simulation time: 0 hr 0 min 10 sec) 
Heartbeat CPU  0 instructions:    4000000 cycles:   46398611 heartbeat IPC: 0.08908 cumulative IPC: 0.08435 (Simulation time: 0 hr 0 min 13 sec) 
Heartbeat CPU  0 instructions:    5000000 cycles:   60265841 heartbeat IPC: 0.07211 cumulative IPC: 0.08153 (Simulation time: 0 hr 0 min 16 sec) 
Heartbeat CPU  0 instructions:    6000000 cycles:   71038470 heartbeat IPC: 0.09283 cumulative IPC: 0.08325 (Simulation time: 0 hr 0 min 19 sec) 
Heartbeat CPU  0 instructions:    7000000 cycles:   83641061 heartbeat IPC: 0.07935 cumulative IPC: 0.08266 (Simulation time: 0 hr 0 min 22 sec) 
Heartbeat CPU  0 instructions:    8000000 cycles:   95927014 heartbeat IPC: 0.08139 cumulative IPC: 0.08250 (Simulation time: 0 hr 0 min 25 sec) 
Heartbeat CPU  0 instructions:    9000000 cycles:  107236478 heartbeat IPC: 0.08842 cumulative IPC: 0.08312 (Simulation time: 0 hr 0 min 28 sec) 
Heartbeat CPU  0 instructions:   10000000 cycles:  120787387 heartbeat IPC: 0.07380 cumulative IPC: 0.08207 (Simulation time: 0 hr 0 min 31 sec) 
Heartbeat CPU  0 instructions:   11000000 cycles:  131739405 heartbeat IPC: 0.09131 cumulative IPC: 0.08284 (Simulation time: 0 hr 0 min 33 sec) 
Heartbeat CPU  0 instructions:   12000000 cycles:  149484132 heartbeat IPC: 0.05635 cumulative IPC: 0.07969 (Simulation time: 0 hr 0 min 36 sec) 
Heartbeat CPU  0 instructions:   13000000 cycles:  160328452 heartbeat IPC: 0.09221 cumulative IPC: 0.08054 (Simulation time: 0 hr 0 min 39 sec) 
Heartbeat CPU  0 instructions:   14000000 cycles:  174759245 heartbeat IPC: 0.06930 cumulative IPC: 0.07961 (Simulation time: 0 hr 0 min 42 sec) 
Heartbeat CPU  0 instructions:   15000000 cycles:  189425630 heartbeat IPC: 0.06818 cumulative IPC: 0.07873 (Simulation time: 0 hr 0 min 45 sec) 
Heartbeat CPU  0 instructions:   16000000 cycles:  200554814 heartbeat IPC: 0.08985 cumulative IPC: 0.07935 (Simulation time: 0 hr 0 min 47 sec) 
Heartbeat CPU  0 instructions:   17000000 cycles:  215773076 heartbeat IPC: 0.06571 cumulative IPC: 0.07838 (Simulation time: 0 hr 0 min 50 sec) 
Heartbeat CPU  0 instructions:   18000000 cycles:  234157800 heartbeat IPC: 0.05439 cumulative IPC: 0.07650 (Simulation time: 0 hr 0 min 54 sec) 
Heartbeat CPU  0 instructions:   19000000 cycles:  251956602 heartbeat IPC: 0.05618 cumulative IPC: 0.07506 (Simulation time: 0 hr 0 min 57 sec) 
Heartbeat CPU  0 instructions:   20000000 cycles:  262716901 heartbeat IPC: 0.09293 cumulative IPC: 0.07579 (Simulation time: 0 hr 1 min 0 sec) 
Heartbeat CPU  0 instructions:   21000000 cycles:  273983266 heartbeat IPC: 0.08876 cumulative IPC: 0.07633 (Simulation time: 0 hr 1 min 3 sec) 
Heartbeat CPU  0 instructions:   22000000 cycles:  288782154 heartbeat IPC: 0.06757 cumulative IPC: 0.07588 (Simulation time: 0 hr 1 min 6 sec) 
Heartbeat CPU  0 instructions:   23000000 cycles:  307370009 heartbeat IPC: 0.05380 cumulative IPC: 0.07454 (Simulation time: 0 hr 1 min 10 sec) 
Heartbeat CPU  0 instructions:   24000000 cycles:  325700356 heartbeat IPC: 0.05455 cumulative IPC: 0.07342 (Simulation time: 0 hr 1 min 15 sec) 
Heartbeat CPU  0 instructions:   25000000 cycles:  344088415 heartbeat IPC: 0.05438 cumulative IPC: 0.07240 (Simulation time: 0 hr 1 min 19 sec) 
Heartbeat CPU  0 instructions:   26000000 cycles:  362285550 heartbeat IPC: 0.05495 cumulative IPC: 0.07152 (Simulation time: 0 hr 1 min 24 sec) 
Heartbeat CPU  0 instructions:   27000000 cycles:  380323493 heartbeat IPC: 0.05544 cumulative IPC: 0.07076 (Simulation time: 0 hr 1 min 30 sec) 
Heartbeat CPU  0 instructions:   28000000 cycles:  391911736 heartbeat IPC: 0.08629 cumulative IPC: 0.07122 (Simulation time: 0 hr 1 min 34 sec) 
Heartbeat CPU  0 instructions:   29000000 cycles:  402625511 heartbeat IPC: 0.09334 cumulative IPC: 0.07181 (Simulation time: 0 hr 1 min 37 sec) 
Heartbeat CPU  0 instructions:   30000000 cycles:  415780775 heartbeat IPC: 0.07602 cumulative IPC: 0.07194 (Simulation time: 0 hr 1 min 41 sec) 
Heartbeat CPU  0 instructions:   31000000 cycles:  427458396 heartbeat IPC: 0.08563 cumulative IPC: 0.07232 (Simulation time: 0 hr 1 min 45 sec) 
Heartbeat CPU  0 instructions:   32000000 cycles:  438260698 heartbeat IPC: 0.09257 cumulative IPC: 0.07282 (Simulation time: 0 hr 1 min 48 sec) 
Heartbeat CPU  0 instructions:   33000000 cycles:  452441569 heartbeat IPC: 0.07052 cumulative IPC: 0.07274 (Simulation time: 0 hr 1 min 52 sec) 
Heartbeat CPU  0 instructions:   34000000 cycles:  463735031 heartbeat IPC: 0.08855 cumulative IPC: 0.07313 (Simulation time: 0 hr 1 min 55 sec) 
Heartbeat CPU  0 instructions:   35000000 cycles:  474804799 heartbeat IPC: 0.09034 cumulative IPC: 0.07353 (Simulation time: 0 hr 1 min 58 sec) 
Heartbeat CPU  0 instructions:   36000000 cycles:  488781761 heartbeat IPC: 0.07155 cumulative IPC: 0.07347 (Simulation time: 0 hr 2 min 2 sec) 
Heartbeat CPU  0 instructions:   37000000 cycles:  499406909 heartbeat IPC: 0.09412 cumulative IPC: 0.07391 (Simulation time: 0 hr 2 min 5 sec) 
Heartbeat CPU  0 instructions:   38000000 cycles:  512351530 heartbeat IPC: 0.07725 cumulative IPC: 0.07400 (Simulation time: 0 hr 2 min 9 sec) 
Heartbeat CPU  0 instructions:   39000000 cycles:  528028960 heartbeat IPC: 0.06379 cumulative IPC: 0.07369 (Simulation time: 0 hr 2 min 12 sec) 
Heartbeat CPU  0 instructions:   40000000 cycles:  539092687 heartbeat IPC: 0.09039 cumulative IPC: 0.07404 (Simulation time: 0 hr 2 min 16 sec) 
Heartbeat CPU  0 instructions:   41000000 cycles:  550268712 heartbeat IPC: 0.08948 cumulative IPC: 0.07435 (Simulation time: 0 hr 2 min 19 sec) 
Heartbeat CPU  0 instructions:   42000000 cycles:  564241615 heartbeat IPC: 0.07157 cumulative IPC: 0.07428 (Simulation time: 0 hr 2 min 23 sec) 
Heartbeat CPU  0 instructions:   43000000 cycles:  574862431 heartbeat IPC: 0.09415 cumulative IPC: 0.07465 (Simulation time: 0 hr 2 min 26 sec) 
Heartbeat CPU  0 instructions:   44000000 cycles:  588912455 heartbeat IPC: 0.07117 cumulative IPC: 0.07457 (Simulation time: 0 hr 2 min 30 sec) 
Heartbeat CPU  0 instructions:   45000000 cycles:  599530315 heartbeat IPC: 0.09418 cumulative IPC: 0.07491 (Simulation time: 0 hr 2 min 33 sec) 
Heartbeat CPU  0 instructions:   46000000 cycles:  612881675 heartbeat IPC: 0.07490 cumulative IPC: 0.07491 (Simulation time: 0 hr 2 min 37 sec) 
Heartbeat CPU  0 instructions:   47000000 cycles:  624670611 heartbeat IPC: 0.08483 cumulative IPC: 0.07510 (Simulation time: 0 hr 2 min 40 sec) 
Heartbeat CPU  0 instructions:   48000000 cycles:  635321831 heartbeat IPC: 0.09389 cumulative IPC: 0.07541 (Simulation time: 0 hr 2 min 43 sec) 
Heartbeat CPU  0 instructions:   49000000 cycles:  649384851 heartbeat IPC: 0.07111 cumulative IPC: 0.07532 (Simulation time: 0 hr 2 min 47 sec) 
Heartbeat CPU  0 instructions:   50000000 cycles:  667262142 heartbeat IPC: 0.05594 cumulative IPC: 0.07480 (Simulation time: 0 hr 2 min 51 sec) 
Finished CPU 0 instructions: 50000000 cycles: 668648246 cumulative IPC: 0.07478 (Simulation time: 0 hr 2 min 51 sec) 

ChampSim completed all CPUs

[ROI Statistics]
Core_0_instructions 50000000
Core_0_cycles 668648246
Core_0_IPC 0.07478

Core_0_branch_prediction_accuracy 98.56473
Core_0_branch_MPKI 1.67426
Core_0_average_ROB_occupancy_at_mispredict 172.27839

Core_0_L1D_total_access 29410968
Core_0_L1D_total_hit 26722571
Core_0_L1D_total_miss 2688397
Core_0_L1D_loads 17572587
Core_0_L1D_load_hit 15010227
Core_0_L1D_load_miss 2562360
Core_0_L1D_RFOs 11838381
Core_0_L1D_RFO_hit 11712344
Core_0_L1D_RFO_miss 126037
Core_0_L1D_prefetches 0
Core_0_L1D_prefetch_hit 0
Core_0_L1D_prefetch_miss 0
Core_0_L1D_writebacks 0
Core_0_L1D_writeback_hit 0
Core_0_L1D_writeback_miss 0
Core_0_L1D_prefetch_requested 0
Core_0_L1D_prefetch_dropped 0
Core_0_L1D_prefetch_issued 0
Core_0_L1D_prefetch_filled 0
Core_0_L1D_prefetch_useful 0
Core_0_L1D_prefetch_useless 0
Core_0_L1D_prefetch_late 0
Core_0_L1D_average_miss_latency 59.52152

Core_0_L1D_rq_access 17572587
Core_0_L1D_rq_forward 0
Core_0_L1D_rq_merged 0
Core_0_L1D_rq_to_cache 17572587
Core_0_L1D_rq_full 0

Core_0_L1D_wq_access 12110651
Core_0_L1D_wq_forward 0
Core_0_L1D_wq_merged 0
Core_0_L1D_wq_to_cache 12110651
Core_0_L1D_wq_full 0

Core_0_L1D_pq_access 0
Core_0_L1D_pq_forward 0
Core_0_L1D_pq_merged 0
Core_0_L1D_pq_to_cache 0
Core_0_L1D_pq_full 0

Core_0_L1D_acc_epochs 651925
Core_0_L1D_acc_level_0 651925
Core_0_L1D_acc_level_1 0
Core_0_L1D_acc_level_2 0
Core_0_L1D_acc_level_3 0
Core_0_L1D_acc_level_4 0
Core_0_L1D_acc_level_5 0
Core_0_L1D_acc_level_6 0
Core_0_L1D_acc_level_7 0
Core_0_L1D_acc_level_8 0
Core_0_L1D_acc_level_9 0

Core_0_L1I_total_access 37659885
Core_0_L1I_total_hit 37659857
Core_0_L1I_total_miss 28
Core_0_L1I_loads 37659885
Core_0_L1I_load_hit 37659857
Core_0_L1I_load_miss 28
Core_0_L1I_RFOs 0
Core_0_L1I_RFO_hit 0
Core_0_L1I_RFO_miss 0
Core_0_L1I_prefetches 0
Core_0_L1I_prefetch_hit 0
Core_0_L1I_prefetch_miss 0
Core_0_L1I_writebacks 0
Core_0_L1I_writeback_hit 0
Core_0_L1I_writeback_miss 0
Core_0_L1I_prefetch_requested 0
Core_0_L1I_prefetch_dropped 0
Core_0_L1I_prefetch_issued 0
Core_0_L1I_prefetch_filled 0
Core_0_L1I_prefetch_useful 0
Core_0_L1I_prefetch_useless 0
Core_0_L1I_prefetch_late 0
Core_0_L1I_average_miss_latency 81.92857

Core_0_L1I_rq_access 50000000
Core_0_L1I_rq_forward 0
Core_0_L1I_rq_merged 12340111
Core_0_L1I_rq_to_cache 37659889
Core_0_L1I_rq_full 0

Core_0_L1I_wq_access 0
Core_0_L1I_wq_forward 0
Core_0_L1I_wq_merged 0
Core_0_L1I_wq_to_cache 0
Core_0_L1I_wq_full 0

Core_0_L1I_pq_access 0
Core_0_L1I_pq_forward 0
Core_0_L1I_pq_merged 0
Core_0_L1I_pq_to_cache 0
Core_0_L1I_pq_full 0

Core_0_L1I_acc_epochs 651925
Core_0_L1I_acc_level_0 651925
Core_0_L1I_acc_level_1 0
Core_0_L1I_acc_level_2 0
Core_0_L1I_acc_level_3 0
Core_0_L1I_acc_level_4 0
Core_0_L1I_acc_level_5 0
Core_0_L1I_acc_level_6 0
Core_0_L1I_acc_level_7 0
Core_0_L1I_acc_level_8 0
Core_0_L1I_acc_level_9 0

Core_0_L2C_total_access 3678281
Core_0_L2C_total_hit 854698
Core_0_L2C_total_miss 2823583
Core_0_L2C_loads 2562388
Core_0_L2C_load_hit 546127
Core_0_L2C_load_miss 2016261
Core_0_L2C_RFOs 126037
Core_0_L2C_RFO_hit 2054
Core_0_L2C_RFO_miss 123983
Core_0_L2C_prefetches 701696
Core_0_L2C_prefetch_hit 19846
Core_0_L2C_prefetch_miss 681850
Core_0_L2C_writebacks 288160
Core_0_L2C_writeback_hit 286671
Core_0_L2C_writeback_miss 1489
Core_0_L2C_prefetch_requested 701812
Core_0_L2C_prefetch_dropped 0
Core_0_L2C_prefetch_issued 701812
Core_0_L2C_prefetch_filled 681966
Core_0_L2C_prefetch_useful 512047
Core_0_L2C_prefetch_useless 169428
Core_0_L2C_prefetch_late 0
Core_0_L2C_average_miss_latency 55.53758

Core_0_L2C_rq_access 2688425
Core_0_L2C_rq_forward 0
Core_0_L2C_rq_merged 0
Core_0_L2C_rq_to_cache 2688425
Core_0_L2C_rq_full 0

Core_0_L2C_wq_access 288160
Core_0_L2C_wq_forward 0
Core_0_L2C_wq_merged 0
Core_0_L2C_wq_to_cache 288160
Core_0_L2C_wq_full 0

Core_0_L2C_pq_access 701812
Core_0_L2C_pq_forward 0
Core_0_L2C_pq_merged 0
Core_0_L2C_pq_to_cache 701812
Core_0_L2C_pq_full 0

Core_0_L2C_acc_epochs 651925
Core_0_L2C_acc_level_0 304971
Core_0_L2C_acc_level_1 27102
Core_0_L2C_acc_level_2 24021
Core_0_L2C_acc_level_3 10772
Core_0_L2C_acc_level_4 11603
Core_0_L2C_acc_level_5 39590
Core_0_L2C_acc_level_6 61306
Core_0_L2C_acc_level_7 55289
Core_0_L2C_acc_level_8 57785
Core_0_L2C_acc_level_9 59486

Core_0_LLC_total_access 3084024
Core_0_LLC_total_hit 560237
Core_0_LLC_total_miss 2523787
Core_0_LLC_loads 2016261
Core_0_LLC_load_hit 375375
Core_0_LLC_load_miss 1640886
Core_0_LLC_RFOs 123983
Core_0_LLC_RFO_hit 271
Core_0_LLC_RFO_miss 123712
Core_0_LLC_prefetches 681850
Core_0_LLC_prefetch_hit 143510
Core_0_LLC_prefetch_miss 538340
Core_0_LLC_writebacks 261930
Core_0_LLC_writeback_hit 41081
Core_0_LLC_writeback_miss 220849
Core_0_LLC_prefetch_requested 0
Core_0_LLC_prefetch_dropped 0
Core_0_LLC_prefetch_issued 0
Core_0_LLC_prefetch_filled 538456
Core_0_LLC_prefetch_useful 9
Core_0_LLC_prefetch_useless 533769
Core_0_LLC_prefetch_late 0
Core_0_LLC_average_miss_latency 28.55069

Core_0_LLC_rq_access 2140244
Core_0_LLC_rq_forward 0
Core_0_LLC_rq_merged 0
Core_0_LLC_rq_to_cache 2140244
Core_0_LLC_rq_full 0

Core_0_LLC_wq_access 261930
Core_0_LLC_wq_forward 0
Core_0_LLC_wq_merged 0
Core_0_LLC_wq_to_cache 261930
Core_0_LLC_wq_full 0

Core_0_LLC_pq_access 681966
Core_0_LLC_pq_forward 0
Core_0_LLC_pq_merged 0
Core_0_LLC_pq_to_cache 681966
Core_0_LLC_pq_full 0

Core_0_LLC_acc_epochs 653138
Core_0_LLC_acc_level_0 653135
Core_0_LLC_acc_level_1 1
Core_0_LLC_acc_level_2 1
Core_0_LLC_acc_level_3 0
Core_0_LLC_acc_level_4 0
Core_0_LLC_acc_level_5 1
Core_0_LLC_acc_level_6 0
Core_0_LLC_acc_level_7 0
Core_0_LLC_acc_level_8 0
Core_0_LLC_acc_level_9 0

Core_0_major_page_fault 0
Core_0_minor_page_fault 12612

-------- Custom final stats --------
Total number of elements ever stored in prediction table :2563383
Channel_0_RQ_row_buffer_hit 1544764
Channel_0_RQ_row_buffer_miss 758174
Channel_0_WQ_row_buffer_hit 841
Channel_0_WQ_row_buffer_miss 240533
Channel_0_WQ_full 0
Channel_0_dbus_congested 0

avg_congested_cycle 0

DRAM_bw_pochs 2612550
DRAM_bw_level_0 2612550
DRAM_bw_level_1 0
DRAM_bw_level_2 0
DRAM_bw_level_3 0
