*************************************************
   ChampSim Multicore Out-of-Order Simulator
   Last compiled: Dec  3 2023 14:43:31
*************************************************
parsing config file: /home/pcineverdies/Projects/RM4ES/Prefetcher-Research-Project/config/nopref.ini

trace_0 /home/pcineverdies/Projects/RM4ES/Prefetcher-Research-Project/traces/605.mcf_s-472B.champsimtrace.xz
adding L2C_PREFETCHER: NONE
Initialize SHIP state
warmup_instructions 100000
simulation_instructions 50000000
champsim_seed 223
measure_ipc 0
measure_ipc_epoch 1000
measure_dram_bw 1
measure_dram_bw_epoch 256
measure_cache_acc 1
measure_cache_acc_epoch 1024
l1d_perfect 0
l2c_perfect 0
llc_perfect 0
l1d_semi_perfect 0
l2c_semi_perfect 0
llc_semi_perfect 0
semi_perfect_cache_page_buffer_size 64

num_cpus 1
cpu_freq 550
dram_io_freq 2400
page_size 4096
block_size 64
max_read_per_cycle 8
max_fill_per_cycle 1
dram_channels 1
log2_dram_channels 0
dram_ranks 1
dram_banks 8
dram_rows 65536
dram_columns 128
dram_row_size 8
dram_size 4096
dram_pages 1048576

fetch_width 2
decode_width 2
exec_width 2
lq_width 1
sq_width 1
retire_width 5
scheduler_size 1
branch_mispredict_penalty 1
rob_size 256
lq_size 72
sq_size 56
num_instr_destinations_sparc 4
num_instr_destinations 2
num_instr_sources 4

itlb_set 1024
itlb_way 1024
itlb_rq_size 16
itlb_wq_size 16
itlb_pq_size 0
itlb_mshr_size 8
itlb_latency 0

dtlb_set 1024
dtlb_way 1024
dtlb_rq_size 32
dtlb_wq_size 32
dtlb_pq_size 0
dtlb_mshr_size 8
dtlb_latency 1

stlb_set 1024
stlb_way 1024
stlb_rq_size 32
stlb_wq_size 32
stlb_pq_size 0
stlb_mshr_size 16
stlb_latency 0

l1i_size 32
l1i_set 64
l1i_way 8
l1i_rq_size 64
l1i_wq_size 64
l1i_pq_size 32
l1i_mshr_size 8
l1i_latency 4

l1d_size 48
l1d_set 64
l1d_way 12
l1d_rq_size 64
l1d_wq_size 64
l1d_pq_size 8
l1d_mshr_size 16
l1d_latency 5

l2c_size 512
l2c_set 1024
l2c_way 8
l2c_rq_size 32
l2c_wq_size 32
l2c_pq_size 16
l2c_mshr_size 32
l2c_latency 10

llc_size 2048
llc_set 2048
llc_way 16
llc_rq_size 32
llc_wq_size 32
llc_pq_size 32
llc_mshr_size 64
llc_latency 20

dram_channel_width 8
dram_wq_size 64
dram_rq_size 64
tRP 15
tRCD 15
tCAS 12.5
dram_dbus_turn_around_time 4
dram_write_high_wm 56
dram_write_low_wm 48
min_dram_writes_per_switch 16
dram_mtps 2400
dram_dbus_return_time 1



Warmup complete CPU  0 instructions:     100001 cycles:     164597 (Simulation time: 0 hr 0 min 0 sec) 

Heartbeat CPU  0 instructions:    1000000 cycles:    9897863 heartbeat IPC: 0.10103 cumulative IPC: 0.09247 (Simulation time: 0 hr 0 min 2 sec) 
Heartbeat CPU  0 instructions:    2000000 cycles:   25147669 heartbeat IPC: 0.06557 cumulative IPC: 0.07605 (Simulation time: 0 hr 0 min 5 sec) 
Heartbeat CPU  0 instructions:    3000000 cycles:   36081203 heartbeat IPC: 0.09146 cumulative IPC: 0.08074 (Simulation time: 0 hr 0 min 7 sec) 
Heartbeat CPU  0 instructions:    4000000 cycles:   47420997 heartbeat IPC: 0.08819 cumulative IPC: 0.08253 (Simulation time: 0 hr 0 min 10 sec) 
Heartbeat CPU  0 instructions:    5000000 cycles:   61899823 heartbeat IPC: 0.06907 cumulative IPC: 0.07937 (Simulation time: 0 hr 0 min 13 sec) 
Heartbeat CPU  0 instructions:    6000000 cycles:   72731376 heartbeat IPC: 0.09232 cumulative IPC: 0.08130 (Simulation time: 0 hr 0 min 15 sec) 
Heartbeat CPU  0 instructions:    7000000 cycles:   85703281 heartbeat IPC: 0.07709 cumulative IPC: 0.08067 (Simulation time: 0 hr 0 min 18 sec) 
Heartbeat CPU  0 instructions:    8000000 cycles:   98357496 heartbeat IPC: 0.07903 cumulative IPC: 0.08045 (Simulation time: 0 hr 0 min 21 sec) 
Heartbeat CPU  0 instructions:    9000000 cycles:  109858980 heartbeat IPC: 0.08695 cumulative IPC: 0.08113 (Simulation time: 0 hr 0 min 23 sec) 
Heartbeat CPU  0 instructions:   10000000 cycles:  123975763 heartbeat IPC: 0.07084 cumulative IPC: 0.07996 (Simulation time: 0 hr 0 min 26 sec) 
Heartbeat CPU  0 instructions:   11000000 cycles:  135036887 heartbeat IPC: 0.09041 cumulative IPC: 0.08082 (Simulation time: 0 hr 0 min 28 sec) 
Heartbeat CPU  0 instructions:   12000000 cycles:  154144488 heartbeat IPC: 0.05234 cumulative IPC: 0.07728 (Simulation time: 0 hr 0 min 32 sec) 
Heartbeat CPU  0 instructions:   13000000 cycles:  165081278 heartbeat IPC: 0.09143 cumulative IPC: 0.07822 (Simulation time: 0 hr 0 min 34 sec) 
Heartbeat CPU  0 instructions:   14000000 cycles:  180259591 heartbeat IPC: 0.06588 cumulative IPC: 0.07718 (Simulation time: 0 hr 0 min 37 sec) 
Heartbeat CPU  0 instructions:   15000000 cycles:  195672022 heartbeat IPC: 0.06488 cumulative IPC: 0.07621 (Simulation time: 0 hr 0 min 40 sec) 
Heartbeat CPU  0 instructions:   16000000 cycles:  206865176 heartbeat IPC: 0.08934 cumulative IPC: 0.07692 (Simulation time: 0 hr 0 min 43 sec) 
Heartbeat CPU  0 instructions:   17000000 cycles:  222961992 heartbeat IPC: 0.06212 cumulative IPC: 0.07585 (Simulation time: 0 hr 0 min 46 sec) 
Heartbeat CPU  0 instructions:   18000000 cycles:  242834246 heartbeat IPC: 0.05032 cumulative IPC: 0.07376 (Simulation time: 0 hr 0 min 49 sec) 
Heartbeat CPU  0 instructions:   19000000 cycles:  261997732 heartbeat IPC: 0.05218 cumulative IPC: 0.07218 (Simulation time: 0 hr 0 min 53 sec) 
Heartbeat CPU  0 instructions:   20000000 cycles:  272817805 heartbeat IPC: 0.09242 cumulative IPC: 0.07299 (Simulation time: 0 hr 0 min 55 sec) 
Heartbeat CPU  0 instructions:   21000000 cycles:  284137772 heartbeat IPC: 0.08834 cumulative IPC: 0.07360 (Simulation time: 0 hr 0 min 58 sec) 
Heartbeat CPU  0 instructions:   22000000 cycles:  299698562 heartbeat IPC: 0.06426 cumulative IPC: 0.07311 (Simulation time: 0 hr 1 min 1 sec) 
Heartbeat CPU  0 instructions:   23000000 cycles:  319827667 heartbeat IPC: 0.04968 cumulative IPC: 0.07164 (Simulation time: 0 hr 1 min 4 sec) 
Heartbeat CPU  0 instructions:   24000000 cycles:  339640474 heartbeat IPC: 0.05047 cumulative IPC: 0.07040 (Simulation time: 0 hr 1 min 8 sec) 
Heartbeat CPU  0 instructions:   25000000 cycles:  359510397 heartbeat IPC: 0.05033 cumulative IPC: 0.06929 (Simulation time: 0 hr 1 min 11 sec) 
Heartbeat CPU  0 instructions:   26000000 cycles:  379155886 heartbeat IPC: 0.05090 cumulative IPC: 0.06834 (Simulation time: 0 hr 1 min 14 sec) 
Heartbeat CPU  0 instructions:   27000000 cycles:  398605355 heartbeat IPC: 0.05142 cumulative IPC: 0.06751 (Simulation time: 0 hr 1 min 18 sec) 
Heartbeat CPU  0 instructions:   28000000 cycles:  410407996 heartbeat IPC: 0.08473 cumulative IPC: 0.06801 (Simulation time: 0 hr 1 min 21 sec) 
Heartbeat CPU  0 instructions:   29000000 cycles:  421171249 heartbeat IPC: 0.09291 cumulative IPC: 0.06864 (Simulation time: 0 hr 1 min 23 sec) 
Heartbeat CPU  0 instructions:   30000000 cycles:  434819641 heartbeat IPC: 0.07327 cumulative IPC: 0.06879 (Simulation time: 0 hr 1 min 26 sec) 
Heartbeat CPU  0 instructions:   31000000 cycles:  446731206 heartbeat IPC: 0.08395 cumulative IPC: 0.06919 (Simulation time: 0 hr 1 min 29 sec) 
Heartbeat CPU  0 instructions:   32000000 cycles:  457591398 heartbeat IPC: 0.09208 cumulative IPC: 0.06974 (Simulation time: 0 hr 1 min 31 sec) 
Heartbeat CPU  0 instructions:   33000000 cycles:  472444065 heartbeat IPC: 0.06733 cumulative IPC: 0.06966 (Simulation time: 0 hr 1 min 34 sec) 
Heartbeat CPU  0 instructions:   34000000 cycles:  483798581 heartbeat IPC: 0.08807 cumulative IPC: 0.07009 (Simulation time: 0 hr 1 min 37 sec) 
Heartbeat CPU  0 instructions:   35000000 cycles:  494925541 heartbeat IPC: 0.08987 cumulative IPC: 0.07054 (Simulation time: 0 hr 1 min 40 sec) 
Heartbeat CPU  0 instructions:   36000000 cycles:  509564849 heartbeat IPC: 0.06831 cumulative IPC: 0.07048 (Simulation time: 0 hr 1 min 43 sec) 
Heartbeat CPU  0 instructions:   37000000 cycles:  520252709 heartbeat IPC: 0.09356 cumulative IPC: 0.07095 (Simulation time: 0 hr 1 min 45 sec) 
Heartbeat CPU  0 instructions:   38000000 cycles:  533664068 heartbeat IPC: 0.07456 cumulative IPC: 0.07104 (Simulation time: 0 hr 1 min 48 sec) 
Heartbeat CPU  0 instructions:   39000000 cycles:  550359678 heartbeat IPC: 0.05990 cumulative IPC: 0.07070 (Simulation time: 0 hr 1 min 51 sec) 
Heartbeat CPU  0 instructions:   40000000 cycles:  561481357 heartbeat IPC: 0.08991 cumulative IPC: 0.07108 (Simulation time: 0 hr 1 min 54 sec) 
Heartbeat CPU  0 instructions:   41000000 cycles:  572716786 heartbeat IPC: 0.08900 cumulative IPC: 0.07143 (Simulation time: 0 hr 1 min 57 sec) 
Heartbeat CPU  0 instructions:   42000000 cycles:  587354441 heartbeat IPC: 0.06832 cumulative IPC: 0.07136 (Simulation time: 0 hr 2 min 0 sec) 
Heartbeat CPU  0 instructions:   43000000 cycles:  598040713 heartbeat IPC: 0.09358 cumulative IPC: 0.07175 (Simulation time: 0 hr 2 min 2 sec) 
Heartbeat CPU  0 instructions:   44000000 cycles:  612784413 heartbeat IPC: 0.06783 cumulative IPC: 0.07166 (Simulation time: 0 hr 2 min 5 sec) 
Heartbeat CPU  0 instructions:   45000000 cycles:  623463739 heartbeat IPC: 0.09364 cumulative IPC: 0.07204 (Simulation time: 0 hr 2 min 8 sec) 
Heartbeat CPU  0 instructions:   46000000 cycles:  637321973 heartbeat IPC: 0.07216 cumulative IPC: 0.07204 (Simulation time: 0 hr 2 min 11 sec) 
Heartbeat CPU  0 instructions:   47000000 cycles:  649364123 heartbeat IPC: 0.08304 cumulative IPC: 0.07224 (Simulation time: 0 hr 2 min 14 sec) 
Heartbeat CPU  0 instructions:   48000000 cycles:  660070167 heartbeat IPC: 0.09341 cumulative IPC: 0.07259 (Simulation time: 0 hr 2 min 16 sec) 
Heartbeat CPU  0 instructions:   49000000 cycles:  674823693 heartbeat IPC: 0.06778 cumulative IPC: 0.07248 (Simulation time: 0 hr 2 min 19 sec) 
Heartbeat CPU  0 instructions:   50000000 cycles:  694097928 heartbeat IPC: 0.05188 cumulative IPC: 0.07191 (Simulation time: 0 hr 2 min 23 sec) 
Finished CPU 0 instructions: 50000000 cycles: 695588164 cumulative IPC: 0.07188 (Simulation time: 0 hr 2 min 23 sec) 

ChampSim completed all CPUs

[ROI Statistics]
Core_0_instructions 50000000
Core_0_cycles 695588164
Core_0_IPC 0.07188

Core_0_branch_prediction_accuracy 98.56473
Core_0_branch_MPKI 1.67426
Core_0_average_ROB_occupancy_at_mispredict 172.28110

Core_0_L1D_total_access 29411007
Core_0_L1D_total_hit 26722610
Core_0_L1D_total_miss 2688397
Core_0_L1D_loads 17572587
Core_0_L1D_load_hit 15010227
Core_0_L1D_load_miss 2562360
Core_0_L1D_RFOs 11838420
Core_0_L1D_RFO_hit 11712383
Core_0_L1D_RFO_miss 126037
Core_0_L1D_prefetches 0
Core_0_L1D_prefetch_hit 0
Core_0_L1D_prefetch_miss 0
Core_0_L1D_writebacks 0
Core_0_L1D_writeback_hit 0
Core_0_L1D_writeback_miss 0
Core_0_L1D_prefetch_requested 0
Core_0_L1D_prefetch_dropped 0
Core_0_L1D_prefetch_issued 0
Core_0_L1D_prefetch_filled 0
Core_0_L1D_prefetch_useful 0
Core_0_L1D_prefetch_useless 0
Core_0_L1D_prefetch_late 0
Core_0_L1D_average_miss_latency 69.54006

Core_0_L1D_rq_access 17572587
Core_0_L1D_rq_forward 0
Core_0_L1D_rq_merged 0
Core_0_L1D_rq_to_cache 17572587
Core_0_L1D_rq_full 0

Core_0_L1D_wq_access 12110651
Core_0_L1D_wq_forward 0
Core_0_L1D_wq_merged 0
Core_0_L1D_wq_to_cache 12110651
Core_0_L1D_wq_full 0

Core_0_L1D_pq_access 0
Core_0_L1D_pq_forward 0
Core_0_L1D_pq_merged 0
Core_0_L1D_pq_to_cache 0
Core_0_L1D_pq_full 0

Core_0_L1D_acc_epochs 678233
Core_0_L1D_acc_level_0 678233
Core_0_L1D_acc_level_1 0
Core_0_L1D_acc_level_2 0
Core_0_L1D_acc_level_3 0
Core_0_L1D_acc_level_4 0
Core_0_L1D_acc_level_5 0
Core_0_L1D_acc_level_6 0
Core_0_L1D_acc_level_7 0
Core_0_L1D_acc_level_8 0
Core_0_L1D_acc_level_9 0

Core_0_L1I_total_access 37662189
Core_0_L1I_total_hit 37662161
Core_0_L1I_total_miss 28
Core_0_L1I_loads 37662189
Core_0_L1I_load_hit 37662161
Core_0_L1I_load_miss 28
Core_0_L1I_RFOs 0
Core_0_L1I_RFO_hit 0
Core_0_L1I_RFO_miss 0
Core_0_L1I_prefetches 0
Core_0_L1I_prefetch_hit 0
Core_0_L1I_prefetch_miss 0
Core_0_L1I_writebacks 0
Core_0_L1I_writeback_hit 0
Core_0_L1I_writeback_miss 0
Core_0_L1I_prefetch_requested 0
Core_0_L1I_prefetch_dropped 0
Core_0_L1I_prefetch_issued 0
Core_0_L1I_prefetch_filled 0
Core_0_L1I_prefetch_useful 0
Core_0_L1I_prefetch_useless 0
Core_0_L1I_prefetch_late 0
Core_0_L1I_average_miss_latency 82.57143

Core_0_L1I_rq_access 50000000
Core_0_L1I_rq_forward 0
Core_0_L1I_rq_merged 12337807
Core_0_L1I_rq_to_cache 37662193
Core_0_L1I_rq_full 0

Core_0_L1I_wq_access 0
Core_0_L1I_wq_forward 0
Core_0_L1I_wq_merged 0
Core_0_L1I_wq_to_cache 0
Core_0_L1I_wq_full 0

Core_0_L1I_pq_access 0
Core_0_L1I_pq_forward 0
Core_0_L1I_pq_merged 0
Core_0_L1I_pq_to_cache 0
Core_0_L1I_pq_full 0

Core_0_L1I_acc_epochs 678233
Core_0_L1I_acc_level_0 678233
Core_0_L1I_acc_level_1 0
Core_0_L1I_acc_level_2 0
Core_0_L1I_acc_level_3 0
Core_0_L1I_acc_level_4 0
Core_0_L1I_acc_level_5 0
Core_0_L1I_acc_level_6 0
Core_0_L1I_acc_level_7 0
Core_0_L1I_acc_level_8 0
Core_0_L1I_acc_level_9 0

Core_0_L2C_total_access 2976585
Core_0_L2C_total_hit 323297
Core_0_L2C_total_miss 2653288
Core_0_L2C_loads 2562388
Core_0_L2C_load_hit 34440
Core_0_L2C_load_miss 2527948
Core_0_L2C_RFOs 126037
Core_0_L2C_RFO_hit 2074
Core_0_L2C_RFO_miss 123963
Core_0_L2C_prefetches 0
Core_0_L2C_prefetch_hit 0
Core_0_L2C_prefetch_miss 0
Core_0_L2C_writebacks 288160
Core_0_L2C_writeback_hit 286783
Core_0_L2C_writeback_miss 1377
Core_0_L2C_prefetch_requested 0
Core_0_L2C_prefetch_dropped 0
Core_0_L2C_prefetch_issued 0
Core_0_L2C_prefetch_filled 0
Core_0_L2C_prefetch_useful 0
Core_0_L2C_prefetch_useless 0
Core_0_L2C_prefetch_late 0
Core_0_L2C_average_miss_latency 55.25036

Core_0_L2C_rq_access 2688425
Core_0_L2C_rq_forward 0
Core_0_L2C_rq_merged 0
Core_0_L2C_rq_to_cache 2688425
Core_0_L2C_rq_full 0

Core_0_L2C_wq_access 288160
Core_0_L2C_wq_forward 0
Core_0_L2C_wq_merged 0
Core_0_L2C_wq_to_cache 288160
Core_0_L2C_wq_full 0

Core_0_L2C_pq_access 0
Core_0_L2C_pq_forward 0
Core_0_L2C_pq_merged 0
Core_0_L2C_pq_to_cache 0
Core_0_L2C_pq_full 0

Core_0_L2C_acc_epochs 678233
Core_0_L2C_acc_level_0 678233
Core_0_L2C_acc_level_1 0
Core_0_L2C_acc_level_2 0
Core_0_L2C_acc_level_3 0
Core_0_L2C_acc_level_4 0
Core_0_L2C_acc_level_5 0
Core_0_L2C_acc_level_6 0
Core_0_L2C_acc_level_7 0
Core_0_L2C_acc_level_8 0
Core_0_L2C_acc_level_9 0

Core_0_LLC_total_access 2913602
Core_0_LLC_total_hit 564140
Core_0_LLC_total_miss 2349462
Core_0_LLC_loads 2527948
Core_0_LLC_load_hit 531252
Core_0_LLC_load_miss 1996696
Core_0_LLC_RFOs 123963
Core_0_LLC_RFO_hit 233
Core_0_LLC_RFO_miss 123730
Core_0_LLC_prefetches 0
Core_0_LLC_prefetch_hit 0
Core_0_LLC_prefetch_miss 0
Core_0_LLC_writebacks 261691
Core_0_LLC_writeback_hit 32655
Core_0_LLC_writeback_miss 229036
Core_0_LLC_prefetch_requested 0
Core_0_LLC_prefetch_dropped 0
Core_0_LLC_prefetch_issued 0
Core_0_LLC_prefetch_filled 0
Core_0_LLC_prefetch_useful 0
Core_0_LLC_prefetch_useless 0
Core_0_LLC_prefetch_late 0
Core_0_LLC_average_miss_latency 28.50061

Core_0_LLC_rq_access 2651911
Core_0_LLC_rq_forward 0
Core_0_LLC_rq_merged 0
Core_0_LLC_rq_to_cache 2651911
Core_0_LLC_rq_full 0

Core_0_LLC_wq_access 261691
Core_0_LLC_wq_forward 0
Core_0_LLC_wq_merged 0
Core_0_LLC_wq_to_cache 261691
Core_0_LLC_wq_full 0

Core_0_LLC_pq_access 0
Core_0_LLC_pq_forward 0
Core_0_LLC_pq_merged 0
Core_0_LLC_pq_to_cache 0
Core_0_LLC_pq_full 0

Core_0_LLC_acc_epochs 679447
Core_0_LLC_acc_level_0 679447
Core_0_LLC_acc_level_1 0
Core_0_LLC_acc_level_2 0
Core_0_LLC_acc_level_3 0
Core_0_LLC_acc_level_4 0
Core_0_LLC_acc_level_5 0
Core_0_LLC_acc_level_6 0
Core_0_LLC_acc_level_7 0
Core_0_LLC_acc_level_8 0
Core_0_LLC_acc_level_9 0

Core_0_major_page_fault 0
Core_0_minor_page_fault 12612

Channel_0_RQ_row_buffer_hit 1381050
Channel_0_RQ_row_buffer_miss 739376
Channel_0_WQ_row_buffer_hit 737
Channel_0_WQ_row_buffer_miss 241039
Channel_0_WQ_full 0
Channel_0_dbus_congested 0

avg_congested_cycle 0

DRAM_bw_pochs 2717785
DRAM_bw_level_0 2717785
DRAM_bw_level_1 0
DRAM_bw_level_2 0
DRAM_bw_level_3 0
