*************************************************
   ChampSim Multicore Out-of-Order Simulator
   Last compiled: Dec  3 2023 14:43:31
*************************************************
parsing config file: /home/pcineverdies/Projects/RM4ES/Prefetcher-Research-Project/config/spt_v2.ini

trace_0 /home/pcineverdies/Projects/RM4ES/Prefetcher-Research-Project/traces/605.mcf_s-472B.champsimtrace.xz
adding L2C_PREFETCHER: spt_v2
Initialize SHIP state
warmup_instructions 100000
simulation_instructions 50000000
champsim_seed 223
measure_ipc 0
measure_ipc_epoch 1000
measure_dram_bw 1
measure_dram_bw_epoch 256
measure_cache_acc 1
measure_cache_acc_epoch 1024
l1d_perfect 0
l2c_perfect 0
llc_perfect 0
l1d_semi_perfect 0
l2c_semi_perfect 0
llc_semi_perfect 0
semi_perfect_cache_page_buffer_size 64

num_cpus 1
cpu_freq 550
dram_io_freq 2400
page_size 4096
block_size 64
max_read_per_cycle 8
max_fill_per_cycle 1
dram_channels 1
log2_dram_channels 0
dram_ranks 1
dram_banks 8
dram_rows 65536
dram_columns 128
dram_row_size 8
dram_size 4096
dram_pages 1048576

fetch_width 2
decode_width 2
exec_width 2
lq_width 1
sq_width 1
retire_width 5
scheduler_size 1
branch_mispredict_penalty 1
rob_size 256
lq_size 72
sq_size 56
num_instr_destinations_sparc 4
num_instr_destinations 2
num_instr_sources 4

itlb_set 1024
itlb_way 1024
itlb_rq_size 16
itlb_wq_size 16
itlb_pq_size 0
itlb_mshr_size 8
itlb_latency 0

dtlb_set 1024
dtlb_way 1024
dtlb_rq_size 32
dtlb_wq_size 32
dtlb_pq_size 0
dtlb_mshr_size 8
dtlb_latency 1

stlb_set 1024
stlb_way 1024
stlb_rq_size 32
stlb_wq_size 32
stlb_pq_size 0
stlb_mshr_size 16
stlb_latency 0

l1i_size 32
l1i_set 64
l1i_way 8
l1i_rq_size 64
l1i_wq_size 64
l1i_pq_size 32
l1i_mshr_size 8
l1i_latency 4

l1d_size 48
l1d_set 64
l1d_way 12
l1d_rq_size 64
l1d_wq_size 64
l1d_pq_size 8
l1d_mshr_size 16
l1d_latency 5

l2c_size 512
l2c_set 1024
l2c_way 8
l2c_rq_size 32
l2c_wq_size 32
l2c_pq_size 16
l2c_mshr_size 32
l2c_latency 10

llc_size 2048
llc_set 2048
llc_way 16
llc_rq_size 32
llc_wq_size 32
llc_pq_size 32
llc_mshr_size 64
llc_latency 20

dram_channel_width 8
dram_wq_size 64
dram_rq_size 64
tRP 15
tRCD 15
tCAS 12.5
dram_dbus_turn_around_time 4
dram_write_high_wm 56
dram_write_low_wm 48
min_dram_writes_per_switch 16
dram_mtps 2400
dram_dbus_return_time 1



Warmup complete CPU  0 instructions:     100001 cycles:     164163 (Simulation time: 0 hr 0 min 0 sec) 

Heartbeat CPU  0 instructions:    1000000 cycles:    9744619 heartbeat IPC: 0.10262 cumulative IPC: 0.09394 (Simulation time: 0 hr 0 min 3 sec) 
Heartbeat CPU  0 instructions:    2000000 cycles:   23336927 heartbeat IPC: 0.07357 cumulative IPC: 0.08199 (Simulation time: 0 hr 0 min 6 sec) 
Heartbeat CPU  0 instructions:    3000000 cycles:   34105049 heartbeat IPC: 0.09287 cumulative IPC: 0.08544 (Simulation time: 0 hr 0 min 8 sec) 
Heartbeat CPU  0 instructions:    4000000 cycles:   45164179 heartbeat IPC: 0.09042 cumulative IPC: 0.08667 (Simulation time: 0 hr 0 min 11 sec) 
Heartbeat CPU  0 instructions:    5000000 cycles:   58302462 heartbeat IPC: 0.07611 cumulative IPC: 0.08428 (Simulation time: 0 hr 0 min 14 sec) 
Heartbeat CPU  0 instructions:    6000000 cycles:   68979033 heartbeat IPC: 0.09366 cumulative IPC: 0.08574 (Simulation time: 0 hr 0 min 16 sec) 
Heartbeat CPU  0 instructions:    7000000 cycles:   81135410 heartbeat IPC: 0.08226 cumulative IPC: 0.08522 (Simulation time: 0 hr 0 min 19 sec) 
Heartbeat CPU  0 instructions:    8000000 cycles:   92971229 heartbeat IPC: 0.08449 cumulative IPC: 0.08512 (Simulation time: 0 hr 0 min 22 sec) 
Heartbeat CPU  0 instructions:    9000000 cycles:  104093651 heartbeat IPC: 0.08991 cumulative IPC: 0.08563 (Simulation time: 0 hr 0 min 24 sec) 
Heartbeat CPU  0 instructions:   10000000 cycles:  116957198 heartbeat IPC: 0.07774 cumulative IPC: 0.08477 (Simulation time: 0 hr 0 min 27 sec) 
Heartbeat CPU  0 instructions:   11000000 cycles:  127786198 heartbeat IPC: 0.09234 cumulative IPC: 0.08541 (Simulation time: 0 hr 0 min 30 sec) 
Heartbeat CPU  0 instructions:   12000000 cycles:  144038163 heartbeat IPC: 0.06153 cumulative IPC: 0.08271 (Simulation time: 0 hr 0 min 33 sec) 
Heartbeat CPU  0 instructions:   13000000 cycles:  154760271 heartbeat IPC: 0.09327 cumulative IPC: 0.08344 (Simulation time: 0 hr 0 min 35 sec) 
Heartbeat CPU  0 instructions:   14000000 cycles:  168364214 heartbeat IPC: 0.07351 cumulative IPC: 0.08264 (Simulation time: 0 hr 0 min 38 sec) 
Heartbeat CPU  0 instructions:   15000000 cycles:  182201038 heartbeat IPC: 0.07227 cumulative IPC: 0.08185 (Simulation time: 0 hr 0 min 41 sec) 
Heartbeat CPU  0 instructions:   16000000 cycles:  193209404 heartbeat IPC: 0.09084 cumulative IPC: 0.08236 (Simulation time: 0 hr 0 min 44 sec) 
Heartbeat CPU  0 instructions:   17000000 cycles:  207451142 heartbeat IPC: 0.07022 cumulative IPC: 0.08153 (Simulation time: 0 hr 0 min 47 sec) 
Heartbeat CPU  0 instructions:   18000000 cycles:  224229914 heartbeat IPC: 0.05960 cumulative IPC: 0.07989 (Simulation time: 0 hr 0 min 50 sec) 
Heartbeat CPU  0 instructions:   19000000 cycles:  240524502 heartbeat IPC: 0.06137 cumulative IPC: 0.07863 (Simulation time: 0 hr 0 min 54 sec) 
Heartbeat CPU  0 instructions:   20000000 cycles:  251164519 heartbeat IPC: 0.09398 cumulative IPC: 0.07928 (Simulation time: 0 hr 0 min 57 sec) 
Heartbeat CPU  0 instructions:   21000000 cycles:  262302992 heartbeat IPC: 0.08978 cumulative IPC: 0.07973 (Simulation time: 0 hr 1 min 0 sec) 
Heartbeat CPU  0 instructions:   22000000 cycles:  276245902 heartbeat IPC: 0.07172 cumulative IPC: 0.07932 (Simulation time: 0 hr 1 min 4 sec) 
Heartbeat CPU  0 instructions:   23000000 cycles:  293177823 heartbeat IPC: 0.05906 cumulative IPC: 0.07815 (Simulation time: 0 hr 1 min 8 sec) 
Heartbeat CPU  0 instructions:   24000000 cycles:  309898482 heartbeat IPC: 0.05981 cumulative IPC: 0.07716 (Simulation time: 0 hr 1 min 12 sec) 
Heartbeat CPU  0 instructions:   25000000 cycles:  326672476 heartbeat IPC: 0.05962 cumulative IPC: 0.07626 (Simulation time: 0 hr 1 min 16 sec) 
Heartbeat CPU  0 instructions:   26000000 cycles:  343308945 heartbeat IPC: 0.06011 cumulative IPC: 0.07548 (Simulation time: 0 hr 1 min 20 sec) 
Heartbeat CPU  0 instructions:   27000000 cycles:  359823985 heartbeat IPC: 0.06055 cumulative IPC: 0.07479 (Simulation time: 0 hr 1 min 24 sec) 
Heartbeat CPU  0 instructions:   28000000 cycles:  371105918 heartbeat IPC: 0.08864 cumulative IPC: 0.07521 (Simulation time: 0 hr 1 min 27 sec) 
Heartbeat CPU  0 instructions:   29000000 cycles:  381719537 heartbeat IPC: 0.09422 cumulative IPC: 0.07574 (Simulation time: 0 hr 1 min 30 sec) 
Heartbeat CPU  0 instructions:   30000000 cycles:  394295827 heartbeat IPC: 0.07951 cumulative IPC: 0.07586 (Simulation time: 0 hr 1 min 34 sec) 
Heartbeat CPU  0 instructions:   31000000 cycles:  405684498 heartbeat IPC: 0.08781 cumulative IPC: 0.07620 (Simulation time: 0 hr 1 min 37 sec) 
Heartbeat CPU  0 instructions:   32000000 cycles:  416403474 heartbeat IPC: 0.09329 cumulative IPC: 0.07664 (Simulation time: 0 hr 1 min 40 sec) 
Heartbeat CPU  0 instructions:   33000000 cycles:  429801678 heartbeat IPC: 0.07464 cumulative IPC: 0.07658 (Simulation time: 0 hr 1 min 44 sec) 
Heartbeat CPU  0 instructions:   34000000 cycles:  440944668 heartbeat IPC: 0.08974 cumulative IPC: 0.07691 (Simulation time: 0 hr 1 min 47 sec) 
Heartbeat CPU  0 instructions:   35000000 cycles:  451906474 heartbeat IPC: 0.09123 cumulative IPC: 0.07726 (Simulation time: 0 hr 1 min 50 sec) 
Heartbeat CPU  0 instructions:   36000000 cycles:  465126124 heartbeat IPC: 0.07564 cumulative IPC: 0.07721 (Simulation time: 0 hr 1 min 55 sec) 
Heartbeat CPU  0 instructions:   37000000 cycles:  475652718 heartbeat IPC: 0.09500 cumulative IPC: 0.07760 (Simulation time: 0 hr 1 min 59 sec) 
Heartbeat CPU  0 instructions:   38000000 cycles:  488072787 heartbeat IPC: 0.08051 cumulative IPC: 0.07768 (Simulation time: 0 hr 2 min 2 sec) 
Heartbeat CPU  0 instructions:   39000000 cycles:  502636057 heartbeat IPC: 0.06867 cumulative IPC: 0.07742 (Simulation time: 0 hr 2 min 6 sec) 
Heartbeat CPU  0 instructions:   40000000 cycles:  513598442 heartbeat IPC: 0.09122 cumulative IPC: 0.07771 (Simulation time: 0 hr 2 min 10 sec) 
Heartbeat CPU  0 instructions:   41000000 cycles:  524646457 heartbeat IPC: 0.09051 cumulative IPC: 0.07798 (Simulation time: 0 hr 2 min 13 sec) 
Heartbeat CPU  0 instructions:   42000000 cycles:  537863537 heartbeat IPC: 0.07566 cumulative IPC: 0.07792 (Simulation time: 0 hr 2 min 16 sec) 
Heartbeat CPU  0 instructions:   43000000 cycles:  548401793 heartbeat IPC: 0.09489 cumulative IPC: 0.07825 (Simulation time: 0 hr 2 min 19 sec) 
Heartbeat CPU  0 instructions:   44000000 cycles:  561681561 heartbeat IPC: 0.07530 cumulative IPC: 0.07818 (Simulation time: 0 hr 2 min 22 sec) 
Heartbeat CPU  0 instructions:   45000000 cycles:  572202309 heartbeat IPC: 0.09505 cumulative IPC: 0.07849 (Simulation time: 0 hr 2 min 25 sec) 
Heartbeat CPU  0 instructions:   46000000 cycles:  584974075 heartbeat IPC: 0.07830 cumulative IPC: 0.07849 (Simulation time: 0 hr 2 min 29 sec) 
Heartbeat CPU  0 instructions:   47000000 cycles:  596429383 heartbeat IPC: 0.08730 cumulative IPC: 0.07866 (Simulation time: 0 hr 2 min 32 sec) 
Heartbeat CPU  0 instructions:   48000000 cycles:  606976963 heartbeat IPC: 0.09481 cumulative IPC: 0.07894 (Simulation time: 0 hr 2 min 34 sec) 
Heartbeat CPU  0 instructions:   49000000 cycles:  620259342 heartbeat IPC: 0.07529 cumulative IPC: 0.07886 (Simulation time: 0 hr 2 min 38 sec) 
Heartbeat CPU  0 instructions:   50000000 cycles:  636630297 heartbeat IPC: 0.06108 cumulative IPC: 0.07840 (Simulation time: 0 hr 2 min 41 sec) 
Finished CPU 0 instructions: 50000000 cycles: 637902411 cumulative IPC: 0.07838 (Simulation time: 0 hr 2 min 41 sec) 

ChampSim completed all CPUs

[ROI Statistics]
Core_0_instructions 50000000
Core_0_cycles 637902411
Core_0_IPC 0.07838

Core_0_branch_prediction_accuracy 98.56473
Core_0_branch_MPKI 1.67426
Core_0_average_ROB_occupancy_at_mispredict 172.27586

Core_0_L1D_total_access 29439588
Core_0_L1D_total_hit 26751191
Core_0_L1D_total_miss 2688397
Core_0_L1D_loads 17572587
Core_0_L1D_load_hit 15010227
Core_0_L1D_load_miss 2562360
Core_0_L1D_RFOs 11867001
Core_0_L1D_RFO_hit 11740964
Core_0_L1D_RFO_miss 126037
Core_0_L1D_prefetches 0
Core_0_L1D_prefetch_hit 0
Core_0_L1D_prefetch_miss 0
Core_0_L1D_writebacks 0
Core_0_L1D_writeback_hit 0
Core_0_L1D_writeback_miss 0
Core_0_L1D_prefetch_requested 0
Core_0_L1D_prefetch_dropped 0
Core_0_L1D_prefetch_issued 0
Core_0_L1D_prefetch_filled 0
Core_0_L1D_prefetch_useful 0
Core_0_L1D_prefetch_useless 0
Core_0_L1D_prefetch_late 0
Core_0_L1D_average_miss_latency 47.77719

Core_0_L1D_rq_access 17572587
Core_0_L1D_rq_forward 0
Core_0_L1D_rq_merged 0
Core_0_L1D_rq_to_cache 17572587
Core_0_L1D_rq_full 0

Core_0_L1D_wq_access 12110651
Core_0_L1D_wq_forward 0
Core_0_L1D_wq_merged 0
Core_0_L1D_wq_to_cache 12110651
Core_0_L1D_wq_full 0

Core_0_L1D_pq_access 0
Core_0_L1D_pq_forward 0
Core_0_L1D_pq_merged 0
Core_0_L1D_pq_to_cache 0
Core_0_L1D_pq_full 0

Core_0_L1D_acc_epochs 621899
Core_0_L1D_acc_level_0 621899
Core_0_L1D_acc_level_1 0
Core_0_L1D_acc_level_2 0
Core_0_L1D_acc_level_3 0
Core_0_L1D_acc_level_4 0
Core_0_L1D_acc_level_5 0
Core_0_L1D_acc_level_6 0
Core_0_L1D_acc_level_7 0
Core_0_L1D_acc_level_8 0
Core_0_L1D_acc_level_9 0

Core_0_L1I_total_access 37657368
Core_0_L1I_total_hit 37657340
Core_0_L1I_total_miss 28
Core_0_L1I_loads 37657368
Core_0_L1I_load_hit 37657340
Core_0_L1I_load_miss 28
Core_0_L1I_RFOs 0
Core_0_L1I_RFO_hit 0
Core_0_L1I_RFO_miss 0
Core_0_L1I_prefetches 0
Core_0_L1I_prefetch_hit 0
Core_0_L1I_prefetch_miss 0
Core_0_L1I_writebacks 0
Core_0_L1I_writeback_hit 0
Core_0_L1I_writeback_miss 0
Core_0_L1I_prefetch_requested 0
Core_0_L1I_prefetch_dropped 0
Core_0_L1I_prefetch_issued 0
Core_0_L1I_prefetch_filled 0
Core_0_L1I_prefetch_useful 0
Core_0_L1I_prefetch_useless 0
Core_0_L1I_prefetch_late 0
Core_0_L1I_average_miss_latency 81.92857

Core_0_L1I_rq_access 50000000
Core_0_L1I_rq_forward 0
Core_0_L1I_rq_merged 12342628
Core_0_L1I_rq_to_cache 37657372
Core_0_L1I_rq_full 0

Core_0_L1I_wq_access 0
Core_0_L1I_wq_forward 0
Core_0_L1I_wq_merged 0
Core_0_L1I_wq_to_cache 0
Core_0_L1I_wq_full 0

Core_0_L1I_pq_access 0
Core_0_L1I_pq_forward 0
Core_0_L1I_pq_merged 0
Core_0_L1I_pq_to_cache 0
Core_0_L1I_pq_full 0

Core_0_L1I_acc_epochs 621899
Core_0_L1I_acc_level_0 621899
Core_0_L1I_acc_level_1 0
Core_0_L1I_acc_level_2 0
Core_0_L1I_acc_level_3 0
Core_0_L1I_acc_level_4 0
Core_0_L1I_acc_level_5 0
Core_0_L1I_acc_level_6 0
Core_0_L1I_acc_level_7 0
Core_0_L1I_acc_level_8 0
Core_0_L1I_acc_level_9 0

Core_0_L2C_total_access 5524407
Core_0_L2C_total_hit 2039849
Core_0_L2C_total_miss 3484558
Core_0_L2C_loads 2562388
Core_0_L2C_load_hit 1143489
Core_0_L2C_load_miss 1418899
Core_0_L2C_RFOs 126037
Core_0_L2C_RFO_hit 14151
Core_0_L2C_RFO_miss 111886
Core_0_L2C_prefetches 2547822
Core_0_L2C_prefetch_hit 596060
Core_0_L2C_prefetch_miss 1951762
Core_0_L2C_writebacks 288160
Core_0_L2C_writeback_hit 286149
Core_0_L2C_writeback_miss 2011
Core_0_L2C_prefetch_requested 2548691
Core_0_L2C_prefetch_dropped 0
Core_0_L2C_prefetch_issued 2548691
Core_0_L2C_prefetch_filled 1952455
Core_0_L2C_prefetch_useful 1122740
Core_0_L2C_prefetch_useless 827655
Core_0_L2C_prefetch_late 0
Core_0_L2C_average_miss_latency 56.71341

Core_0_L2C_rq_access 2688425
Core_0_L2C_rq_forward 0
Core_0_L2C_rq_merged 0
Core_0_L2C_rq_to_cache 2688425
Core_0_L2C_rq_full 0

Core_0_L2C_wq_access 288160
Core_0_L2C_wq_forward 0
Core_0_L2C_wq_merged 0
Core_0_L2C_wq_to_cache 288160
Core_0_L2C_wq_full 0

Core_0_L2C_pq_access 2548691
Core_0_L2C_pq_forward 0
Core_0_L2C_pq_merged 0
Core_0_L2C_pq_to_cache 2548691
Core_0_L2C_pq_full 0

Core_0_L2C_acc_epochs 621899
Core_0_L2C_acc_level_0 256046
Core_0_L2C_acc_level_1 45601
Core_0_L2C_acc_level_2 29790
Core_0_L2C_acc_level_3 20269
Core_0_L2C_acc_level_4 21709
Core_0_L2C_acc_level_5 108869
Core_0_L2C_acc_level_6 105604
Core_0_L2C_acc_level_7 24821
Core_0_L2C_acc_level_8 5122
Core_0_L2C_acc_level_9 4068

Core_0_LLC_total_access 3745408
Core_0_LLC_total_hit 562070
Core_0_LLC_total_miss 3183338
Core_0_LLC_loads 1418899
Core_0_LLC_load_hit 191965
Core_0_LLC_load_miss 1226934
Core_0_LLC_RFOs 111886
Core_0_LLC_RFO_hit 764
Core_0_LLC_RFO_miss 111122
Core_0_LLC_prefetches 1951762
Core_0_LLC_prefetch_hit 293689
Core_0_LLC_prefetch_miss 1658073
Core_0_LLC_writebacks 262861
Core_0_LLC_writeback_hit 75652
Core_0_LLC_writeback_miss 187209
Core_0_LLC_prefetch_requested 0
Core_0_LLC_prefetch_dropped 0
Core_0_LLC_prefetch_issued 0
Core_0_LLC_prefetch_filled 1658766
Core_0_LLC_prefetch_useful 1335
Core_0_LLC_prefetch_useless 1646760
Core_0_LLC_prefetch_late 0
Core_0_LLC_average_miss_latency 29.22767

Core_0_LLC_rq_access 1530785
Core_0_LLC_rq_forward 0
Core_0_LLC_rq_merged 0
Core_0_LLC_rq_to_cache 1530785
Core_0_LLC_rq_full 0

Core_0_LLC_wq_access 262861
Core_0_LLC_wq_forward 0
Core_0_LLC_wq_merged 0
Core_0_LLC_wq_to_cache 262861
Core_0_LLC_wq_full 0

Core_0_LLC_pq_access 1952455
Core_0_LLC_pq_forward 0
Core_0_LLC_pq_merged 0
Core_0_LLC_pq_to_cache 1952455
Core_0_LLC_pq_full 0

Core_0_LLC_acc_epochs 623112
Core_0_LLC_acc_level_0 621453
Core_0_LLC_acc_level_1 967
Core_0_LLC_acc_level_2 448
Core_0_LLC_acc_level_3 50
Core_0_LLC_acc_level_4 6
Core_0_LLC_acc_level_5 172
Core_0_LLC_acc_level_6 2
Core_0_LLC_acc_level_7 4
Core_0_LLC_acc_level_8 0
Core_0_LLC_acc_level_9 10

Core_0_major_page_fault 0
Core_0_minor_page_fault 12612

-------- Custom final stats --------
Total number of elements ever stored in prediction table :74
Channel_0_RQ_row_buffer_hit 2059509
Channel_0_RQ_row_buffer_miss 936620
Channel_0_WQ_row_buffer_hit 3228
Channel_0_WQ_row_buffer_miss 237836
Channel_0_WQ_full 0
Channel_0_dbus_congested 0

avg_congested_cycle 0

DRAM_bw_pochs 2492448
DRAM_bw_level_0 2492448
DRAM_bw_level_1 0
DRAM_bw_level_2 0
DRAM_bw_level_3 0
