*************************************************
   ChampSim Multicore Out-of-Order Simulator
   Last compiled: Dec  3 2023 14:43:31
*************************************************
parsing config file: /home/pcineverdies/Projects/RM4ES/Prefetcher-Research-Project/config/pythia.ini

trace_0 /home/pcineverdies/Projects/RM4ES/Prefetcher-Research-Project/traces/605.mcf_s-472B.champsimtrace.xz
adding L2C_PREFETCHER: Scooby
Initialize SHIP state
warmup_instructions 100000
simulation_instructions 50000000
champsim_seed 223
measure_ipc 0
measure_ipc_epoch 1000
measure_dram_bw 1
measure_dram_bw_epoch 256
measure_cache_acc 1
measure_cache_acc_epoch 1024
l1d_perfect 0
l2c_perfect 0
llc_perfect 0
l1d_semi_perfect 0
l2c_semi_perfect 0
llc_semi_perfect 0
semi_perfect_cache_page_buffer_size 64

num_cpus 1
cpu_freq 550
dram_io_freq 2400
page_size 4096
block_size 64
max_read_per_cycle 8
max_fill_per_cycle 1
dram_channels 1
log2_dram_channels 0
dram_ranks 1
dram_banks 8
dram_rows 65536
dram_columns 128
dram_row_size 8
dram_size 4096
dram_pages 1048576

fetch_width 2
decode_width 2
exec_width 2
lq_width 1
sq_width 1
retire_width 5
scheduler_size 1
branch_mispredict_penalty 1
rob_size 256
lq_size 72
sq_size 56
num_instr_destinations_sparc 4
num_instr_destinations 2
num_instr_sources 4

itlb_set 1024
itlb_way 1024
itlb_rq_size 16
itlb_wq_size 16
itlb_pq_size 0
itlb_mshr_size 8
itlb_latency 0

dtlb_set 1024
dtlb_way 1024
dtlb_rq_size 32
dtlb_wq_size 32
dtlb_pq_size 0
dtlb_mshr_size 8
dtlb_latency 1

stlb_set 1024
stlb_way 1024
stlb_rq_size 32
stlb_wq_size 32
stlb_pq_size 0
stlb_mshr_size 16
stlb_latency 0

l1i_size 32
l1i_set 64
l1i_way 8
l1i_rq_size 64
l1i_wq_size 64
l1i_pq_size 32
l1i_mshr_size 8
l1i_latency 4

l1d_size 48
l1d_set 64
l1d_way 12
l1d_rq_size 64
l1d_wq_size 64
l1d_pq_size 8
l1d_mshr_size 16
l1d_latency 5

l2c_size 512
l2c_set 1024
l2c_way 8
l2c_rq_size 32
l2c_wq_size 32
l2c_pq_size 16
l2c_mshr_size 32
l2c_latency 10

llc_size 2048
llc_set 2048
llc_way 16
llc_rq_size 32
llc_wq_size 32
llc_pq_size 32
llc_mshr_size 64
llc_latency 20

dram_channel_width 8
dram_wq_size 64
dram_rq_size 64
tRP 15
tRCD 15
tCAS 12.5
dram_dbus_turn_around_time 4
dram_write_high_wm 56
dram_write_low_wm 48
min_dram_writes_per_switch 16
dram_mtps 2400
dram_dbus_return_time 1

scooby_alpha 0.0065088
scooby_gamma 0.556301
scooby_epsilon 0.00182284
scooby_state_num_bits 10
scooby_max_states 1024
scooby_seed 200
scooby_policy EGreedy
scooby_learning_type SARSA
scooby_actions 1,3,4,5,10,11,12,22,23,30,32,-1,-3,-6,0,
scooby_max_actions 15
scooby_pt_size 256
scooby_st_size 64
scooby_max_pcs 5
scooby_max_offsets 5
scooby_max_deltas 5
scooby_reward_none -4
scooby_reward_incorrect -8
scooby_reward_correct_untimely 12
scooby_reward_correct_timely 20
scooby_brain_zero_init 0
scooby_enable_reward_all 0
scooby_enable_track_multiple 0
scooby_enable_reward_out_of_bounds 1
scooby_reward_out_of_bounds -12
scooby_state_type 1
scooby_state_hash_type 11
scooby_access_debug 0
scooby_print_access_debug 0
scooby_print_access_debug_pc deadbeef
scooby_print_access_debug_pc_count 0
scooby_print_trace 0
scooby_enable_state_action_stats 1
scooby_enable_reward_tracker_hit 0
scooby_reward_tracker_hit -2
scooby_enable_featurewise_engine 1
scooby_pref_degree 1
scooby_enable_dyn_degree 1
scooby_max_to_avg_q_thresholds 0.5,1,2,
scooby_dyn_degrees 1,2,4,4,
scooby_multi_deg_select_type 2
scooby_last_pref_offset_conf_thresholds 1,3,8,
scooby_dyn_degrees_type2 1,2,4,6,
scooby_action_tracker_size 2
scooby_high_bw_thresh 4
scooby_enable_hbw_reward 1
scooby_reward_hbw_correct_timely 20
scooby_reward_hbw_correct_untimely 12
scooby_reward_hbw_incorrect -14
scooby_reward_hbw_none -2
scooby_reward_hbw_out_of_bounds -12
scooby_reward_hbw_tracker_hit -2
scooby_last_pref_offset_conf_thresholds_hbw 1,3,8,
scooby_dyn_degrees_type2_hbw 1,2,4,6,

le_enable_trace 0
le_trace_interval 0
le_trace_file_name 
le_trace_state 0
le_enable_score_plot 0
le_plot_file_name 
le_plot_actions 
le_enable_action_trace 0
le_action_trace_interval 0
le_action_trace_name 
le_enable_action_plot 0

le_featurewise_active_features PC, PC_Delta
le_featurewise_num_tilings 3,3,
le_featurewise_num_tiles 128,128,
le_featurewise_hash_types 2,2,
le_featurewise_enable_tiling_offset 1,1,
le_featurewise_max_q_thresh 0.5
le_featurewise_enable_action_fallback 1
le_featurewise_feature_weights 1,1,
le_featurewise_enable_dynamic_weight 0
le_featurewise_weight_gradient 0.001
le_featurewise_disable_adjust_weight_all_features_align 1
le_featurewise_selective_update 0
le_featurewise_pooling_type 2
le_featurewise_enable_dyn_action_fallback 1
le_featurewise_bw_acc_check_level 1
le_featurewise_acc_thresh 2
le_featurewise_enable_trace 0
le_featurewise_trace_feature_type 0
le_featurewise_trace_feature 
le_featurewise_trace_interval 0
le_featurewise_trace_record_count 0
le_featurewise_trace_file_name 
le_featurewise_enable_score_plot 0
le_featurewise_plot_actions 
le_featurewise_plot_file_name 



Warmup complete CPU  0 instructions:     100001 cycles:     163582 (Simulation time: 0 hr 0 min 0 sec) 

Heartbeat CPU  0 instructions:    1000000 cycles:    9570889 heartbeat IPC: 0.10448 cumulative IPC: 0.09567 (Simulation time: 0 hr 0 min 3 sec) 
Heartbeat CPU  0 instructions:    2000000 cycles:   22252379 heartbeat IPC: 0.07886 cumulative IPC: 0.08602 (Simulation time: 0 hr 0 min 8 sec) 
Heartbeat CPU  0 instructions:    3000000 cycles:   32734982 heartbeat IPC: 0.09540 cumulative IPC: 0.08904 (Simulation time: 0 hr 0 min 11 sec) 
Heartbeat CPU  0 instructions:    4000000 cycles:   43455524 heartbeat IPC: 0.09328 cumulative IPC: 0.09009 (Simulation time: 0 hr 0 min 15 sec) 
Heartbeat CPU  0 instructions:    5000000 cycles:   55775616 heartbeat IPC: 0.08117 cumulative IPC: 0.08811 (Simulation time: 0 hr 0 min 20 sec) 
Heartbeat CPU  0 instructions:    6000000 cycles:   66195172 heartbeat IPC: 0.09597 cumulative IPC: 0.08935 (Simulation time: 0 hr 0 min 23 sec) 
Heartbeat CPU  0 instructions:    7000000 cycles:   77794619 heartbeat IPC: 0.08621 cumulative IPC: 0.08888 (Simulation time: 0 hr 0 min 27 sec) 
Heartbeat CPU  0 instructions:    8000000 cycles:   89123000 heartbeat IPC: 0.08827 cumulative IPC: 0.08880 (Simulation time: 0 hr 0 min 31 sec) 
Heartbeat CPU  0 instructions:    9000000 cycles:   99971668 heartbeat IPC: 0.09218 cumulative IPC: 0.08917 (Simulation time: 0 hr 0 min 34 sec) 
Heartbeat CPU  0 instructions:   10000000 cycles:  112078205 heartbeat IPC: 0.08260 cumulative IPC: 0.08846 (Simulation time: 0 hr 0 min 38 sec) 
Heartbeat CPU  0 instructions:   11000000 cycles:  122672848 heartbeat IPC: 0.09439 cumulative IPC: 0.08897 (Simulation time: 0 hr 0 min 41 sec) 
Heartbeat CPU  0 instructions:   12000000 cycles:  137437598 heartbeat IPC: 0.06773 cumulative IPC: 0.08669 (Simulation time: 0 hr 0 min 45 sec) 
Heartbeat CPU  0 instructions:   13000000 cycles:  147941361 heartbeat IPC: 0.09520 cumulative IPC: 0.08729 (Simulation time: 0 hr 0 min 48 sec) 
Heartbeat CPU  0 instructions:   14000000 cycles:  160670555 heartbeat IPC: 0.07856 cumulative IPC: 0.08660 (Simulation time: 0 hr 0 min 51 sec) 
Heartbeat CPU  0 instructions:   15000000 cycles:  173549573 heartbeat IPC: 0.07765 cumulative IPC: 0.08594 (Simulation time: 0 hr 0 min 55 sec) 
Heartbeat CPU  0 instructions:   16000000 cycles:  184196227 heartbeat IPC: 0.09393 cumulative IPC: 0.08640 (Simulation time: 0 hr 0 min 57 sec) 
Heartbeat CPU  0 instructions:   17000000 cycles:  197410636 heartbeat IPC: 0.07567 cumulative IPC: 0.08568 (Simulation time: 0 hr 1 min 1 sec) 
Heartbeat CPU  0 instructions:   18000000 cycles:  212583246 heartbeat IPC: 0.06591 cumulative IPC: 0.08427 (Simulation time: 0 hr 1 min 5 sec) 
Heartbeat CPU  0 instructions:   19000000 cycles:  227373755 heartbeat IPC: 0.06761 cumulative IPC: 0.08318 (Simulation time: 0 hr 1 min 9 sec) 
Heartbeat CPU  0 instructions:   20000000 cycles:  237805382 heartbeat IPC: 0.09586 cumulative IPC: 0.08374 (Simulation time: 0 hr 1 min 11 sec) 
Heartbeat CPU  0 instructions:   21000000 cycles:  248555279 heartbeat IPC: 0.09302 cumulative IPC: 0.08414 (Simulation time: 0 hr 1 min 14 sec) 
Heartbeat CPU  0 instructions:   22000000 cycles:  261500179 heartbeat IPC: 0.07725 cumulative IPC: 0.08380 (Simulation time: 0 hr 1 min 17 sec) 
Heartbeat CPU  0 instructions:   23000000 cycles:  276791399 heartbeat IPC: 0.06540 cumulative IPC: 0.08278 (Simulation time: 0 hr 1 min 21 sec) 
Heartbeat CPU  0 instructions:   24000000 cycles:  291922016 heartbeat IPC: 0.06609 cumulative IPC: 0.08192 (Simulation time: 0 hr 1 min 25 sec) 
Heartbeat CPU  0 instructions:   25000000 cycles:  307095271 heartbeat IPC: 0.06591 cumulative IPC: 0.08113 (Simulation time: 0 hr 1 min 29 sec) 
Heartbeat CPU  0 instructions:   26000000 cycles:  322169424 heartbeat IPC: 0.06634 cumulative IPC: 0.08043 (Simulation time: 0 hr 1 min 33 sec) 
Heartbeat CPU  0 instructions:   27000000 cycles:  337153221 heartbeat IPC: 0.06674 cumulative IPC: 0.07982 (Simulation time: 0 hr 1 min 37 sec) 
Heartbeat CPU  0 instructions:   28000000 cycles:  348040922 heartbeat IPC: 0.09185 cumulative IPC: 0.08020 (Simulation time: 0 hr 1 min 40 sec) 
Heartbeat CPU  0 instructions:   29000000 cycles:  358423729 heartbeat IPC: 0.09631 cumulative IPC: 0.08067 (Simulation time: 0 hr 1 min 43 sec) 
Heartbeat CPU  0 instructions:   30000000 cycles:  370345008 heartbeat IPC: 0.08388 cumulative IPC: 0.08077 (Simulation time: 0 hr 1 min 46 sec) 
Heartbeat CPU  0 instructions:   31000000 cycles:  381314287 heartbeat IPC: 0.09116 cumulative IPC: 0.08107 (Simulation time: 0 hr 1 min 50 sec) 
Heartbeat CPU  0 instructions:   32000000 cycles:  391793342 heartbeat IPC: 0.09543 cumulative IPC: 0.08145 (Simulation time: 0 hr 1 min 53 sec) 
Heartbeat CPU  0 instructions:   33000000 cycles:  404333639 heartbeat IPC: 0.07974 cumulative IPC: 0.08140 (Simulation time: 0 hr 1 min 57 sec) 
Heartbeat CPU  0 instructions:   34000000 cycles:  415081138 heartbeat IPC: 0.09304 cumulative IPC: 0.08170 (Simulation time: 0 hr 2 min 1 sec) 
Heartbeat CPU  0 instructions:   35000000 cycles:  425709998 heartbeat IPC: 0.09408 cumulative IPC: 0.08201 (Simulation time: 0 hr 2 min 4 sec) 
Heartbeat CPU  0 instructions:   36000000 cycles:  438122459 heartbeat IPC: 0.08056 cumulative IPC: 0.08197 (Simulation time: 0 hr 2 min 8 sec) 
Heartbeat CPU  0 instructions:   37000000 cycles:  448484919 heartbeat IPC: 0.09650 cumulative IPC: 0.08231 (Simulation time: 0 hr 2 min 11 sec) 
Heartbeat CPU  0 instructions:   38000000 cycles:  460322001 heartbeat IPC: 0.08448 cumulative IPC: 0.08236 (Simulation time: 0 hr 2 min 15 sec) 
Heartbeat CPU  0 instructions:   39000000 cycles:  473778736 heartbeat IPC: 0.07431 cumulative IPC: 0.08213 (Simulation time: 0 hr 2 min 19 sec) 
Heartbeat CPU  0 instructions:   40000000 cycles:  484432211 heartbeat IPC: 0.09387 cumulative IPC: 0.08239 (Simulation time: 0 hr 2 min 22 sec) 
Heartbeat CPU  0 instructions:   41000000 cycles:  495128104 heartbeat IPC: 0.09349 cumulative IPC: 0.08263 (Simulation time: 0 hr 2 min 26 sec) 
Heartbeat CPU  0 instructions:   42000000 cycles:  507537907 heartbeat IPC: 0.08058 cumulative IPC: 0.08258 (Simulation time: 0 hr 2 min 30 sec) 
Heartbeat CPU  0 instructions:   43000000 cycles:  517899578 heartbeat IPC: 0.09651 cumulative IPC: 0.08286 (Simulation time: 0 hr 2 min 33 sec) 
Heartbeat CPU  0 instructions:   44000000 cycles:  530375095 heartbeat IPC: 0.08016 cumulative IPC: 0.08280 (Simulation time: 0 hr 2 min 37 sec) 
Heartbeat CPU  0 instructions:   45000000 cycles:  540731575 heartbeat IPC: 0.09656 cumulative IPC: 0.08306 (Simulation time: 0 hr 2 min 40 sec) 
Heartbeat CPU  0 instructions:   46000000 cycles:  552799264 heartbeat IPC: 0.08287 cumulative IPC: 0.08306 (Simulation time: 0 hr 2 min 44 sec) 
Heartbeat CPU  0 instructions:   47000000 cycles:  563821502 heartbeat IPC: 0.09073 cumulative IPC: 0.08321 (Simulation time: 0 hr 2 min 48 sec) 
Heartbeat CPU  0 instructions:   48000000 cycles:  574180105 heartbeat IPC: 0.09654 cumulative IPC: 0.08345 (Simulation time: 0 hr 2 min 51 sec) 
Heartbeat CPU  0 instructions:   49000000 cycles:  586649925 heartbeat IPC: 0.08019 cumulative IPC: 0.08338 (Simulation time: 0 hr 2 min 55 sec) 
Heartbeat CPU  0 instructions:   50000000 cycles:  601528202 heartbeat IPC: 0.06721 cumulative IPC: 0.08298 (Simulation time: 0 hr 2 min 59 sec) 
Finished CPU 0 instructions: 50000000 cycles: 602686598 cumulative IPC: 0.08296 (Simulation time: 0 hr 3 min 0 sec) 

ChampSim completed all CPUs

[ROI Statistics]
Core_0_instructions 50000000
Core_0_cycles 602686598
Core_0_IPC 0.08296

Core_0_branch_prediction_accuracy 98.56473
Core_0_branch_MPKI 1.67426
Core_0_average_ROB_occupancy_at_mispredict 172.26948

Core_0_L1D_total_access 29410249
Core_0_L1D_total_hit 26721852
Core_0_L1D_total_miss 2688397
Core_0_L1D_loads 17572587
Core_0_L1D_load_hit 15010227
Core_0_L1D_load_miss 2562360
Core_0_L1D_RFOs 11837662
Core_0_L1D_RFO_hit 11711625
Core_0_L1D_RFO_miss 126037
Core_0_L1D_prefetches 0
Core_0_L1D_prefetch_hit 0
Core_0_L1D_prefetch_miss 0
Core_0_L1D_writebacks 0
Core_0_L1D_writeback_hit 0
Core_0_L1D_writeback_miss 0
Core_0_L1D_prefetch_requested 0
Core_0_L1D_prefetch_dropped 0
Core_0_L1D_prefetch_issued 0
Core_0_L1D_prefetch_filled 0
Core_0_L1D_prefetch_useful 0
Core_0_L1D_prefetch_useless 0
Core_0_L1D_prefetch_late 0
Core_0_L1D_average_miss_latency 34.69768

Core_0_L1D_rq_access 17572587
Core_0_L1D_rq_forward 0
Core_0_L1D_rq_merged 0
Core_0_L1D_rq_to_cache 17572587
Core_0_L1D_rq_full 0

Core_0_L1D_wq_access 12110651
Core_0_L1D_wq_forward 0
Core_0_L1D_wq_merged 0
Core_0_L1D_wq_to_cache 12110651
Core_0_L1D_wq_full 0

Core_0_L1D_pq_access 0
Core_0_L1D_pq_forward 0
Core_0_L1D_pq_merged 0
Core_0_L1D_pq_to_cache 0
Core_0_L1D_pq_full 0

Core_0_L1D_acc_epochs 587508
Core_0_L1D_acc_level_0 587508
Core_0_L1D_acc_level_1 0
Core_0_L1D_acc_level_2 0
Core_0_L1D_acc_level_3 0
Core_0_L1D_acc_level_4 0
Core_0_L1D_acc_level_5 0
Core_0_L1D_acc_level_6 0
Core_0_L1D_acc_level_7 0
Core_0_L1D_acc_level_8 0
Core_0_L1D_acc_level_9 0

Core_0_L1I_total_access 37652643
Core_0_L1I_total_hit 37652615
Core_0_L1I_total_miss 28
Core_0_L1I_loads 37652643
Core_0_L1I_load_hit 37652615
Core_0_L1I_load_miss 28
Core_0_L1I_RFOs 0
Core_0_L1I_RFO_hit 0
Core_0_L1I_RFO_miss 0
Core_0_L1I_prefetches 0
Core_0_L1I_prefetch_hit 0
Core_0_L1I_prefetch_miss 0
Core_0_L1I_writebacks 0
Core_0_L1I_writeback_hit 0
Core_0_L1I_writeback_miss 0
Core_0_L1I_prefetch_requested 0
Core_0_L1I_prefetch_dropped 0
Core_0_L1I_prefetch_issued 0
Core_0_L1I_prefetch_filled 0
Core_0_L1I_prefetch_useful 0
Core_0_L1I_prefetch_useless 0
Core_0_L1I_prefetch_late 0
Core_0_L1I_average_miss_latency 62.85714

Core_0_L1I_rq_access 50000000
Core_0_L1I_rq_forward 0
Core_0_L1I_rq_merged 12347353
Core_0_L1I_rq_to_cache 37652647
Core_0_L1I_rq_full 0

Core_0_L1I_wq_access 0
Core_0_L1I_wq_forward 0
Core_0_L1I_wq_merged 0
Core_0_L1I_wq_to_cache 0
Core_0_L1I_wq_full 0

Core_0_L1I_pq_access 0
Core_0_L1I_pq_forward 0
Core_0_L1I_pq_merged 0
Core_0_L1I_pq_to_cache 0
Core_0_L1I_pq_full 0

Core_0_L1I_acc_epochs 587508
Core_0_L1I_acc_level_0 587508
Core_0_L1I_acc_level_1 0
Core_0_L1I_acc_level_2 0
Core_0_L1I_acc_level_3 0
Core_0_L1I_acc_level_4 0
Core_0_L1I_acc_level_5 0
Core_0_L1I_acc_level_6 0
Core_0_L1I_acc_level_7 0
Core_0_L1I_acc_level_8 0
Core_0_L1I_acc_level_9 0

Core_0_L2C_total_access 11145736
Core_0_L2C_total_hit 7326992
Core_0_L2C_total_miss 3818744
Core_0_L2C_loads 2562388
Core_0_L2C_load_hit 1754783
Core_0_L2C_load_miss 807605
Core_0_L2C_RFOs 126037
Core_0_L2C_RFO_hit 13098
Core_0_L2C_RFO_miss 112939
Core_0_L2C_prefetches 8169151
Core_0_L2C_prefetch_hit 5272605
Core_0_L2C_prefetch_miss 2896546
Core_0_L2C_writebacks 288160
Core_0_L2C_writeback_hit 286506
Core_0_L2C_writeback_miss 1654
Core_0_L2C_prefetch_requested 8234558
Core_0_L2C_prefetch_dropped 0
Core_0_L2C_prefetch_issued 8234558
Core_0_L2C_prefetch_filled 2897565
Core_0_L2C_prefetch_useful 1733396
Core_0_L2C_prefetch_useless 1161595
Core_0_L2C_prefetch_late 18709
Core_0_L2C_average_miss_latency 56.58101

Core_0_L2C_rq_access 2688425
Core_0_L2C_rq_forward 0
Core_0_L2C_rq_merged 0
Core_0_L2C_rq_to_cache 2688425
Core_0_L2C_rq_full 0

Core_0_L2C_wq_access 288160
Core_0_L2C_wq_forward 0
Core_0_L2C_wq_merged 0
Core_0_L2C_wq_to_cache 288160
Core_0_L2C_wq_full 0

Core_0_L2C_pq_access 8234558
Core_0_L2C_pq_forward 0
Core_0_L2C_pq_merged 475
Core_0_L2C_pq_to_cache 8234083
Core_0_L2C_pq_full 0

Core_0_L2C_acc_epochs 587508
Core_0_L2C_acc_level_0 213816
Core_0_L2C_acc_level_1 41948
Core_0_L2C_acc_level_2 28384
Core_0_L2C_acc_level_3 22691
Core_0_L2C_acc_level_4 25480
Core_0_L2C_acc_level_5 103439
Core_0_L2C_acc_level_6 88039
Core_0_L2C_acc_level_7 34078
Core_0_L2C_acc_level_8 12316
Core_0_L2C_acc_level_9 17317

Core_0_LLC_total_access 4079821
Core_0_LLC_total_hit 497793
Core_0_LLC_total_miss 3582028
Core_0_LLC_loads 788897
Core_0_LLC_load_hit 85730
Core_0_LLC_load_miss 703167
Core_0_LLC_RFOs 112939
Core_0_LLC_RFO_hit 273
Core_0_LLC_RFO_miss 112666
Core_0_LLC_prefetches 2915254
Core_0_LLC_prefetch_hit 350957
Core_0_LLC_prefetch_miss 2564297
Core_0_LLC_writebacks 262731
Core_0_LLC_writeback_hit 60833
Core_0_LLC_writeback_miss 201898
Core_0_LLC_prefetch_requested 0
Core_0_LLC_prefetch_dropped 0
Core_0_LLC_prefetch_issued 0
Core_0_LLC_prefetch_filled 2565317
Core_0_LLC_prefetch_useful 1058
Core_0_LLC_prefetch_useless 2548658
Core_0_LLC_prefetch_late 0
Core_0_LLC_average_miss_latency 28.45717

Core_0_LLC_rq_access 901836
Core_0_LLC_rq_forward 0
Core_0_LLC_rq_merged 0
Core_0_LLC_rq_to_cache 901836
Core_0_LLC_rq_full 0

Core_0_LLC_wq_access 262731
Core_0_LLC_wq_forward 0
Core_0_LLC_wq_merged 0
Core_0_LLC_wq_to_cache 262731
Core_0_LLC_wq_full 0

Core_0_LLC_pq_access 2916274
Core_0_LLC_pq_forward 0
Core_0_LLC_pq_merged 0
Core_0_LLC_pq_to_cache 2916274
Core_0_LLC_pq_full 0

Core_0_LLC_acc_epochs 588721
Core_0_LLC_acc_level_0 587916
Core_0_LLC_acc_level_1 314
Core_0_LLC_acc_level_2 208
Core_0_LLC_acc_level_3 40
Core_0_LLC_acc_level_4 4
Core_0_LLC_acc_level_5 165
Core_0_LLC_acc_level_6 10
Core_0_LLC_acc_level_7 14
Core_0_LLC_acc_level_8 1
Core_0_LLC_acc_level_9 49

Core_0_major_page_fault 0
Core_0_minor_page_fault 12612

scooby_st_lookup 2563383
scooby_st_hit 2487924
scooby_st_evict 75395
scooby_st_insert 75459
scooby_st_streaming 0

scooby_predict_called 2563383
scooby_predict_out_of_bounds 57620
scooby_predict_action_1 844687
scooby_predict_issue_action_1 434249
scooby_predict_hit_action_1 410438
scooby_predict_out_of_bounds_action_1 13435
scooby_predict_action_3 474
scooby_predict_issue_action_3 309
scooby_predict_hit_action_3 165
scooby_predict_out_of_bounds_action_3 28
scooby_predict_action_4 12628
scooby_predict_issue_action_4 10971
scooby_predict_hit_action_4 1657
scooby_predict_out_of_bounds_action_4 732
scooby_predict_action_5 427
scooby_predict_issue_action_5 322
scooby_predict_hit_action_5 105
scooby_predict_out_of_bounds_action_5 26
scooby_predict_action_10 449
scooby_predict_issue_action_10 278
scooby_predict_hit_action_10 171
scooby_predict_out_of_bounds_action_10 87
scooby_predict_action_11 423
scooby_predict_issue_action_11 244
scooby_predict_hit_action_11 179
scooby_predict_out_of_bounds_action_11 68
scooby_predict_action_12 385
scooby_predict_issue_action_12 256
scooby_predict_hit_action_12 129
scooby_predict_out_of_bounds_action_12 92
scooby_predict_action_22 307
scooby_predict_issue_action_22 189
scooby_predict_hit_action_22 118
scooby_predict_out_of_bounds_action_22 167
scooby_predict_action_23 313
scooby_predict_issue_action_23 225
scooby_predict_hit_action_23 88
scooby_predict_out_of_bounds_action_23 153
scooby_predict_action_30 239
scooby_predict_issue_action_30 142
scooby_predict_hit_action_30 97
scooby_predict_out_of_bounds_action_30 212
scooby_predict_action_32 184
scooby_predict_issue_action_32 120
scooby_predict_hit_action_32 64
scooby_predict_out_of_bounds_action_32 196
scooby_predict_action_-1 1111225
scooby_predict_issue_action_-1 1109909
scooby_predict_hit_action_-1 1316
scooby_predict_out_of_bounds_action_-1 17700
scooby_predict_action_-3 501408
scooby_predict_issue_action_-3 500730
scooby_predict_hit_action_-3 678
scooby_predict_out_of_bounds_action_-3 24695
scooby_predict_action_-6 330
scooby_predict_issue_action_-6 324
scooby_predict_hit_action_-6 6
scooby_predict_out_of_bounds_action_-6 29
scooby_predict_action_0 32284
scooby_predict_issue_action_0 0
scooby_predict_hit_action_0 0
scooby_predict_out_of_bounds_action_0 0
scooby_predict_multi_deg_called 1700009
scooby_predict_predicted 8234558
scooby_predict_multi_deg 6176290
scooby_predict_multi_deg_2 1656188
scooby_predict_multi_deg_3 1403494
scooby_predict_multi_deg_4 1359768
scooby_predict_multi_deg_5 898583
scooby_predict_multi_deg_6 858257
scooby_predict_multi_deg_7 0
scooby_predict_multi_deg_8 0
scooby_predict_multi_deg_9 0
scooby_predict_multi_deg_10 0
scooby_predict_multi_deg_11 0
scooby_predict_multi_deg_12 0
scooby_predict_multi_deg_13 0
scooby_predict_multi_deg_14 0
scooby_predict_multi_deg_15 0
scooby_predict_multi_deg_16 0

scooby_selected_deg_1 358259
scooby_selected_deg_2 209390
scooby_selected_deg_3 0
scooby_selected_deg_4 419402
scooby_selected_deg_5 0
scooby_selected_deg_6 1071217
scooby_selected_deg_7 0
scooby_selected_deg_8 0
scooby_selected_deg_9 0
scooby_selected_deg_10 0
scooby_selected_deg_11 0
scooby_selected_deg_12 0
scooby_selected_deg_13 0
scooby_selected_deg_14 0
scooby_selected_deg_15 0
scooby_selected_deg_16 0

scooby_state_402dc3|63|0 10875,3,0,0,4,1,1,1,1,7,2,0,1,0,1,10897,
scooby_state_402dc3|59|-4 10870,2,4,0,1,2,0,1,2,6,1,4,0,1,2,10896,
scooby_state_402dc3|61|0 10780,1,1,1,3,2,1,0,0,2,1,2,1,1,1,10797,
scooby_state_402dc3|62|0 10773,2,1,2,1,2,0,1,1,1,1,0,2,1,3,10791,
scooby_state_402dfb|63|0 10,0,0,1,0,1,1,0,0,0,1,10391,0,1,0,10406,
scooby_state_402dc3|0|-4 9532,0,0,2,0,1,0,2,3,0,1,0,0,0,0,9541,
scooby_state_402dc3|27|-4 9528,0,2,0,2,0,2,0,0,0,2,0,4,0,1,9541,
scooby_state_402dc3|10|-4 9521,3,0,2,1,2,1,1,1,2,2,0,2,2,1,9541,
scooby_state_402dc3|37|-4 9522,3,3,1,2,1,3,0,3,0,1,1,1,0,0,9541,
scooby_state_402dc3|47|-4 9529,2,0,2,2,0,0,1,0,0,0,1,1,0,2,9540,
scooby_state_402dc3|20|-4 9523,1,1,2,1,2,3,0,3,1,2,0,1,0,0,9540,
scooby_state_402dc3|57|-4 9523,1,1,3,3,1,3,0,0,1,0,1,2,1,0,9540,
scooby_state_402dc3|30|-4 9527,0,2,1,0,1,0,0,2,0,0,3,0,1,2,9539,
scooby_state_402dc3|3|-4 9524,1,0,1,2,0,1,1,1,1,3,0,1,1,2,9539,
scooby_state_402dc3|40|-4 9513,2,0,3,4,3,4,1,1,0,3,1,1,1,1,9538,
scooby_state_402dc3|13|-4 9519,0,1,0,2,2,1,1,1,0,1,5,2,1,2,9538,
scooby_state_402dc3|50|-4 9520,0,3,2,3,1,1,0,0,0,0,1,4,0,2,9537,
scooby_state_402dc3|23|-4 9523,4,2,1,3,2,0,0,0,1,0,0,1,0,0,9537,
scooby_state_402dc3|33|-4 9520,2,0,1,0,0,2,2,2,1,0,0,1,0,5,9536,
scooby_state_402dc3|6|-4 9519,1,2,2,1,2,0,0,2,3,0,1,0,1,2,9536,
scooby_state_402dc3|43|-4 9521,1,0,3,2,1,0,0,2,1,1,1,1,1,0,9535,
scooby_state_402dc3|16|-4 9511,1,2,3,0,0,1,2,2,1,3,4,3,0,2,9535,
scooby_state_402dc3|29|-4 9513,3,0,1,3,1,1,3,0,0,2,1,1,3,2,9534,
scooby_state_402dc3|26|-4 9520,2,1,0,2,0,2,1,1,2,1,1,0,1,0,9534,
scooby_state_402dc3|53|-4 9511,1,2,1,3,3,2,0,1,1,2,2,2,0,3,9534,
scooby_state_402dc3|36|-4 9517,1,1,1,2,1,1,2,0,1,2,3,0,0,2,9534,
scooby_state_402dc3|5|-4 9519,2,2,1,0,3,1,0,0,2,1,1,1,1,0,9534,
scooby_state_402dc3|22|-4 9515,3,1,1,2,0,1,3,1,0,1,3,1,0,2,9534,
scooby_state_402dc3|12|-4 9519,0,2,2,0,2,0,3,2,0,0,1,0,3,0,9534,
scooby_state_402dc3|54|-4 9515,2,1,1,0,1,1,2,3,3,0,0,2,2,1,9534,
scooby_state_402dc3|32|-4 9517,3,4,1,0,2,0,2,0,0,0,2,0,1,2,9534,
scooby_state_402dc3|9|-4 9519,0,0,0,0,2,2,0,1,2,2,4,1,0,1,9534,
scooby_state_402dc3|46|-4 9517,0,3,1,1,0,2,1,0,3,0,1,2,1,2,9534,
scooby_state_402dc3|39|-4 9518,2,2,1,2,0,0,3,1,2,0,2,1,0,0,9534,
scooby_state_402dc3|49|-4 9520,4,2,0,1,1,1,0,2,1,0,0,1,0,1,9534,
scooby_state_402dc3|2|-4 9520,1,0,2,0,2,1,1,1,0,3,1,1,0,1,9534,
scooby_state_402dc3|19|-4 9521,1,1,1,0,0,1,3,1,1,0,1,1,1,1,9534,
scooby_state_402dc3|56|-4 9514,1,0,1,0,2,0,1,2,0,2,2,3,2,4,9534,
scooby_state_402dc3|17|-4 9511,2,2,0,0,0,1,0,3,0,1,3,1,1,1,9526,
scooby_state_402dc3|44|-4 9504,0,0,1,2,1,1,0,0,0,1,3,0,0,1,9514,
scooby_state_402dc3|15|-4 9479,2,0,3,2,0,1,3,1,0,1,3,2,0,2,9499,
scooby_state_402dc3|42|-4 9484,0,1,0,3,0,0,2,0,3,1,1,2,1,1,9499,
scooby_state_402dc3|7|-4 9485,1,1,1,1,1,3,0,0,2,0,1,1,1,0,9498,
scooby_state_402dc3|34|-4 9472,0,3,1,1,2,1,1,0,0,0,0,1,3,0,9485,
scooby_state_402dc3|25|-4 9455,0,1,0,1,1,1,0,0,1,1,0,1,1,1,9464,
scooby_state_402dc3|52|-4 9458,0,0,0,1,1,1,1,0,0,1,0,1,0,0,9464,
scooby_state_402dc3|24|-4 9431,2,2,1,3,4,3,0,2,0,1,0,0,1,3,9453,
scooby_state_402dc3|51|-4 9422,1,1,0,1,4,1,1,3,0,1,1,0,2,1,9439,
scooby_state_402dc3|35|-4 9411,0,2,2,0,3,0,2,2,2,2,0,2,0,1,9429,
scooby_state_402dc3|8|-4 9415,0,1,1,1,2,2,2,0,0,1,1,0,2,1,9429,
scooby_state_402dc3|14|-4 9405,0,2,3,2,1,1,0,2,1,0,1,3,1,0,9422,
scooby_state_402dc3|41|-4 9395,1,0,1,3,2,0,0,2,2,0,0,0,3,0,9409,
scooby_state_402dc3|18|-4 9376,1,3,0,1,1,1,0,2,1,1,2,2,1,2,9394,
scooby_state_402dc3|45|-4 9375,1,3,2,3,2,1,0,1,0,3,0,1,0,2,9394,
scooby_state_402dc3|4|-4 9376,0,1,0,2,1,3,2,0,0,0,2,2,1,2,9392,
scooby_state_402dc3|31|-4 9368,4,0,0,1,2,1,0,0,0,0,0,1,2,0,9379,
scooby_state_402dc3|1|-4 9351,0,4,0,1,2,1,0,0,1,2,0,1,3,1,9367,
scooby_state_402dc3|58|-4 9342,1,5,2,0,2,1,2,1,0,0,2,1,4,0,9363,
scooby_state_402dc3|28|-4 9345,0,1,1,1,2,2,2,0,3,0,0,2,1,0,9360,
scooby_state_402dc3|55|-4 9334,0,1,1,3,0,2,3,2,3,1,4,2,2,2,9360,
scooby_state_402dc3|11|-4 9343,0,2,0,0,1,1,2,1,0,0,1,0,0,0,9351,
scooby_state_402dc3|21|-4 9328,2,1,1,2,2,1,2,1,0,0,2,1,2,1,9346,
scooby_state_402dc3|38|-4 9322,2,0,0,2,1,0,3,2,0,2,3,1,0,2,9340,
scooby_state_402dc3|48|-4 9315,1,0,2,1,2,1,6,2,0,0,0,0,2,1,9333,
scooby_state_402dcb|21|1 3,2,4,3,4,1,1,1,0,1,0,1,8157,0,0,8178,
scooby_state_402dcb|48|1 0,2,3,5,4,2,0,1,1,0,1,3,8152,1,3,8178,
scooby_state_402dcb|31|1 2,2,1,3,6,2,1,1,2,2,1,0,8155,0,0,8178,
scooby_state_402dcb|4|1 1,2,1,3,7,1,2,1,0,1,3,1,8152,2,1,8178,
scooby_state_402dcb|58|1 1,1,3,3,5,0,0,1,0,3,1,1,8155,1,3,8178,
scooby_state_402dcb|11|1 0,2,2,2,2,2,1,2,0,2,1,0,8162,0,0,8178,
scooby_state_402dcb|41|1 0,2,1,3,2,2,1,0,2,1,0,1,8159,1,2,8177,
scooby_state_402dcb|38|1 0,2,5,6,0,0,2,4,2,1,1,1,8153,0,0,8177,
scooby_state_402dcb|14|1 2,0,0,2,5,1,1,5,2,1,0,0,8155,3,0,8177,
scooby_state_402dcb|61|1 1,0,1,2,3,2,1,0,2,3,2,0,8155,2,2,8176,
scooby_state_402dcb|24|1 0,1,2,4,3,4,1,1,0,3,1,1,8153,1,1,8176,
scooby_state_402dcb|51|1 1,0,1,2,5,1,0,1,2,1,1,0,8156,2,3,8176,
scooby_state_402dcb|34|1 1,1,1,1,2,2,2,0,2,0,2,1,8158,1,1,8175,
scooby_state_402dcb|7|1 1,0,2,0,3,3,1,1,0,1,1,0,8160,0,2,8175,
scooby_state_402dcb|17|1 0,1,0,0,2,4,2,2,1,2,2,2,8151,2,3,8174,
scooby_state_402dcb|44|1 1,0,0,1,3,6,1,0,0,0,0,1,8160,1,0,8174,
scooby_state_402dcb|27|1 3,1,1,4,1,3,4,1,1,2,0,1,8146,3,2,8173,
scooby_state_402dcb|54|1 0,1,1,0,5,2,4,0,1,1,0,1,8155,1,1,8173,
scooby_state_402dcb|57|1 0,2,1,1,1,1,3,4,1,2,1,1,8150,2,2,8172,
scooby_state_402dcb|53|1 3,1,0,1,2,2,2,2,5,6,3,0,8144,0,1,8172,
scooby_state_402dcb|60|1 1,0,2,2,0,2,1,3,2,4,1,3,8149,1,1,8172,
scooby_state_402dcb|26|1 2,1,0,1,0,1,1,1,2,3,4,3,8150,2,1,8172,
scooby_state_402dcb|33|1 1,0,0,1,4,1,0,4,2,2,0,0,8157,0,0,8172,
scooby_state_402dcb|6|1 0,2,0,3,0,3,1,3,5,4,2,2,8147,0,0,8172,
scooby_state_402dcb|43|1 2,0,1,2,2,2,0,6,3,3,2,0,8148,0,1,8172,
scooby_state_402dcb|47|1 0,2,1,2,2,3,4,2,0,0,1,1,8151,2,1,8172,
scooby_state_402dcb|10|1 0,1,0,0,1,2,2,2,1,2,0,1,8159,1,0,8172,
scooby_state_402dcb|30|1 3,1,1,0,1,1,2,4,3,2,0,1,8150,3,0,8172,
scooby_state_402dcb|3|1 0,0,1,0,1,0,3,2,3,1,0,3,8153,3,2,8172,
scooby_state_402dcb|23|1 1,0,0,0,0,2,1,6,3,3,0,1,8152,1,2,8172,
scooby_state_402dcb|50|1 1,1,3,0,1,1,3,3,3,1,2,1,8151,1,0,8172,
scooby_state_402dcb|37|1 1,1,0,1,2,2,4,3,1,1,1,1,8153,0,1,8172,
scooby_state_402dcb|40|1 0,0,0,0,0,2,3,2,2,2,2,0,8158,0,1,8172,
scooby_state_402dcb|20|1 2,0,0,0,2,1,2,4,2,1,2,1,8154,1,0,8172,
scooby_state_402dcb|13|1 1,1,0,4,1,0,3,3,2,1,1,1,8154,0,0,8172,
scooby_state_402dcb|16|1 0,2,1,1,0,0,1,1,3,2,1,0,8157,0,3,8172,
scooby_state_402dcb|1|1 0,3,6,4,0,0,0,0,3,1,0,1,8148,2,1,8169,
scooby_state_402dcb|28|1 1,3,3,3,1,0,1,1,1,0,0,1,8146,0,0,8161,
scooby_state_402dcb|55|1 1,4,2,1,2,2,1,1,2,0,3,2,8124,1,1,8147,
scooby_state_402dcb|9|1 1,0,1,2,2,0,0,0,1,2,2,2,8123,0,1,8137,
scooby_state_402dcb|63|1 2,2,1,0,1,1,0,1,3,3,1,4,8116,0,2,8137,
scooby_state_402dcb|36|1 2,2,1,0,0,1,5,0,1,2,2,1,8118,0,2,8137,
scooby_state_402dcb|18|1 3,3,3,2,2,1,2,1,1,1,1,0,8110,1,0,8131,
scooby_state_402dcb|45|1 2,3,4,2,1,2,1,0,2,0,3,0,8098,0,0,8118,
scooby_state_402dcb|19|1 1,0,0,1,2,0,0,1,1,4,3,5,8084,0,0,8102,
scooby_state_402dcb|46|1 1,0,0,1,1,0,1,1,1,3,3,2,8084,1,3,8102,
scooby_state_402dcb|8|1 3,2,4,1,0,0,1,2,0,0,2,2,8082,1,1,8101,
scooby_state_402dcb|35|1 1,5,4,0,1,0,1,2,0,0,1,1,8068,2,2,8088,
scooby_state_402dcb|62|1 2,3,3,2,2,0,1,2,1,1,2,1,8050,2,0,8072,
scooby_state_402dcb|29|1 0,0,1,0,0,1,1,1,1,2,2,2,8048,4,4,8067,
scooby_state_402dcb|56|1 0,1,0,0,0,1,0,0,2,2,2,3,8055,1,0,8067,
scooby_state_402dcb|2|1 4,0,0,0,1,0,0,1,0,1,2,2,8056,0,0,8067,
scooby_state_402dcb|25|1 3,3,2,1,1,0,1,0,1,0,1,0,8038,1,3,8055,
scooby_state_402dcb|52|1 3,3,2,3,1,3,3,0,0,0,0,2,8019,2,1,8042,
scooby_state_402dcb|39|1 0,2,1,0,1,1,2,2,1,1,4,6,8009,2,0,8032,
scooby_state_402dcb|12|1 1,3,3,0,2,1,1,0,1,2,2,3,8009,2,2,8032,
scooby_state_402dcb|15|1 3,2,0,2,0,0,0,2,1,0,0,3,8009,1,2,8025,
scooby_state_402dcb|42|1 2,2,1,3,0,4,1,1,0,2,0,4,7991,0,1,8012,
scooby_state_402dcb|22|1 3,2,3,0,2,1,0,0,0,3,3,4,7977,1,0,7999,
scooby_state_402dcb|49|1 2,1,1,0,1,1,0,0,1,0,4,3,7984,0,0,7998,
scooby_state_402dcb|5|1 2,2,1,0,1,0,2,0,0,0,0,4,7981,1,2,7996,
scooby_state_402dcb|32|1 1,2,2,1,1,1,0,1,2,1,0,2,7966,0,1,7981,
scooby_state_402dcb|59|1 3,3,1,0,0,0,0,0,1,2,1,2,7959,0,1,7973,
scooby_state_402dc3|60|-3 6799,2,0,1,1,1,0,0,1,1,0,2,1,1,1,6811,
scooby_state_402dcb|0|-3 2,2,3,2,0,1,0,0,3,1,0,0,6793,3,0,6810,
scooby_state_402dc0|52|-1 0,1,1,0,3,0,0,2,0,1,2,5439,1,0,0,5450,
scooby_state_402dc0|53|-1 1,2,0,0,2,0,4,2,0,2,1,5436,0,0,0,5450,
scooby_state_402dc0|54|-1 0,2,0,1,1,1,1,2,0,1,1,5439,1,0,0,5450,
scooby_state_402dc0|55|-1 0,3,0,0,1,0,0,1,0,1,1,5438,1,1,1,5448,
scooby_state_402dc0|56|-1 2,3,2,0,3,0,1,2,0,1,2,5429,0,0,1,5446,
scooby_state_402dc0|57|-1 0,2,0,0,2,0,1,1,0,1,1,5432,2,1,1,5444,
scooby_state_402dc0|58|-1 0,5,1,0,3,0,1,3,0,0,2,5424,1,1,1,5442,
scooby_state_402dc0|59|-1 0,3,0,0,2,1,1,1,1,4,0,5425,2,0,0,5440,
scooby_state_402dc0|60|-1 1,2,2,1,2,0,0,1,0,1,0,5428,0,0,0,5438,
scooby_state_402dc0|61|-1 2,2,1,0,1,0,2,1,0,2,1,5423,0,0,1,5436,
scooby_state_402dc0|62|-1 1,4,1,2,1,0,2,1,0,1,0,5421,0,0,0,5434,
scooby_state_402dc0|63|0 6,3,0,1,0,0,1,1,0,1,1,5416,1,1,0,5432,
scooby_state_402dc0|0|-1 2,0,2,2,0,1,1,0,2,1,0,5419,0,0,0,5430,
scooby_state_402dc0|1|-1 1,0,0,2,2,0,3,0,1,1,2,5414,2,0,0,5428,
scooby_state_402dc0|2|-1 2,1,1,1,1,1,3,1,2,1,0,5409,0,2,1,5426,
scooby_state_402dc0|3|-1 1,2,2,1,1,0,1,0,1,1,0,5410,1,1,2,5424,
scooby_state_402dc0|4|-1 3,0,0,2,0,0,1,0,1,1,1,5412,1,0,0,5422,
scooby_state_402dc0|5|-1 2,2,1,2,1,1,1,0,1,1,1,5406,1,0,0,5420,
scooby_state_402dc0|6|-1 2,1,1,1,0,1,2,0,1,1,2,5403,2,1,0,5418,
scooby_state_402dc0|7|-1 1,1,0,1,0,3,2,1,0,1,0,5406,0,0,0,5416,
scooby_state_402dc0|46|-1 1,1,0,0,1,0,0,1,0,1,1,5408,0,0,1,5415,
scooby_state_402dc0|51|-1 0,2,1,1,3,0,1,4,0,2,2,5399,0,0,0,5415,
scooby_state_402dc0|12|-1 1,0,0,1,0,0,1,0,0,3,1,5408,0,0,0,5415,
scooby_state_402dc0|8|-1 3,0,1,1,1,1,4,3,1,1,0,5398,0,1,0,5415,
scooby_state_402dc0|47|-1 0,3,1,1,1,0,0,2,1,0,2,5403,0,1,0,5415,
scooby_state_402dc0|49|-1 1,1,0,0,3,1,0,1,0,0,2,5404,1,1,0,5415,
scooby_state_402dc0|13|-1 2,1,2,2,0,0,1,0,0,1,1,5403,0,1,1,5415,
scooby_state_402dc0|50|-1 1,1,2,1,1,3,0,1,2,0,1,5402,0,0,0,5415,
scooby_state_402dc0|9|-1 2,0,0,1,2,0,1,1,0,1,1,5405,0,1,0,5415,
scooby_state_402dc0|48|-1 2,1,2,0,1,0,1,2,1,1,2,5399,1,2,0,5415,
scooby_state_402dc0|10|-1 2,0,1,1,2,1,2,0,0,2,0,5402,1,0,1,5415,
scooby_state_402dc0|14|-1 2,0,1,2,2,1,2,0,0,2,1,5402,0,0,0,5415,
scooby_state_402dc0|11|-1 3,1,0,1,1,1,5,1,0,1,1,5400,0,0,0,5415,
scooby_state_402dc0|23|-1 0,0,1,0,0,1,0,2,1,0,0,5406,1,2,0,5414,
scooby_state_402dc0|31|-1 0,1,1,1,0,3,0,0,1,0,0,5404,0,2,1,5414,
scooby_state_402dc0|22|-1 0,1,1,1,0,2,0,0,1,3,2,5399,0,3,1,5414,
scooby_state_402dc0|21|-1 1,0,1,1,0,3,1,0,1,1,0,5404,0,0,1,5414,
scooby_state_402dc0|19|-1 1,1,2,1,2,2,2,0,3,1,4,5393,1,0,1,5414,
scooby_state_402dc0|42|-1 1,0,1,0,3,1,1,2,3,1,2,5399,0,0,0,5414,
scooby_state_402dc0|20|-1 1,0,0,2,0,3,3,1,1,0,2,5399,0,2,0,5414,
scooby_state_402dc0|44|-1 1,1,1,0,2,0,1,2,0,1,2,5402,1,0,0,5414,
scooby_state_402dc0|32|-1 1,1,2,0,0,1,0,0,1,0,0,5406,1,1,0,5414,
scooby_state_402dc0|37|-1 0,1,1,0,1,2,3,0,5,1,1,5397,1,1,0,5414,
scooby_state_402dc0|36|-1 0,1,2,0,1,1,2,0,2,0,2,5403,0,0,0,5414,
scooby_state_402dc0|26|-1 0,0,3,1,1,1,1,2,2,4,0,5399,0,0,0,5414,
scooby_state_402dc0|34|-1 0,0,1,0,2,2,0,0,3,1,0,5403,0,2,0,5414,
scooby_state_402dc0|27|-1 2,1,1,1,0,3,2,0,1,0,1,5401,0,0,1,5414,
scooby_state_402dc0|17|-1 0,0,2,2,0,1,1,1,1,1,1,5401,1,1,1,5414,
scooby_state_402dc0|38|-1 0,1,2,0,0,2,0,2,2,0,0,5403,1,0,1,5414,
scooby_state_402dc0|39|-1 0,2,2,0,2,1,0,2,2,0,0,5401,2,0,0,5414,
scooby_state_402dc0|29|-1 0,0,1,0,2,1,0,1,1,0,0,5406,0,0,2,5414,
scooby_state_402dc0|25|-1 0,2,1,1,0,3,0,2,3,1,0,5398,2,1,0,5414,
scooby_state_402dc0|33|-1 2,1,2,1,3,0,0,1,2,1,0,5401,0,0,0,5414,
scooby_state_402dc0|24|-1 1,1,2,0,0,2,1,0,1,0,2,5403,0,0,1,5414,
scooby_state_402dc0|18|-1 1,0,0,1,0,0,2,1,0,2,2,5401,2,1,1,5414,
scooby_state_402dc0|43|-1 0,2,2,0,1,2,1,2,0,2,2,5397,0,2,1,5414,
scooby_state_402dc0|16|-1 0,0,0,1,1,2,1,1,0,1,0,5405,0,1,1,5414,
scooby_state_402dc0|45|-1 1,2,0,0,2,0,0,2,0,0,1,5404,1,1,0,5414,
scooby_state_402dc0|30|-1 2,2,4,0,0,1,0,2,3,2,0,5397,0,1,0,5414,
scooby_state_402dc0|41|-1 0,0,1,1,1,0,0,2,1,1,1,5405,0,0,1,5414,
scooby_state_402dc0|35|-1 1,2,2,0,0,1,0,0,2,1,0,5405,0,0,0,5414,
scooby_state_402dc0|15|-1 0,3,2,1,1,0,2,2,3,3,1,5391,1,2,2,5414,
scooby_state_402dc0|40|-1 1,1,2,1,2,1,0,1,2,1,2,5399,1,0,0,5414,
scooby_state_402dc0|28|-1 1,0,3,0,0,2,0,1,2,0,0,5402,0,1,2,5414,
scooby_state_402dfb|38|-2 2,1,2,3,1,1,1,1,1,0,2,5258,2,1,0,5276,
scooby_state_402dfb|17|-2 0,1,1,1,1,0,2,0,1,0,3,5263,0,1,2,5276,
scooby_state_402dfb|22|-1 2,0,1,2,1,0,0,1,2,0,0,5265,1,0,0,5275,
scooby_state_402dfb|20|-2 2,0,0,3,0,0,1,1,0,0,2,5265,0,0,1,5275,
scooby_state_402dfb|56|-2 2,1,1,1,0,1,2,0,1,0,3,5259,1,1,1,5274,
scooby_state_402dfb|31|-2 0,3,0,0,1,0,1,3,1,5,0,5259,0,1,0,5274,
scooby_state_402dfb|43|-2 0,4,0,0,0,3,1,1,1,1,1,5262,0,0,0,5274,
scooby_state_402dfb|42|-2 0,1,0,1,1,0,2,0,0,2,0,5267,0,0,0,5274,
scooby_state_402dfb|58|-2 2,0,1,1,1,0,2,0,2,1,2,5262,0,0,0,5274,
scooby_state_402dfb|14|-1 0,1,1,2,1,0,4,3,0,0,0,5261,0,1,0,5274,
scooby_state_402dfb|40|-2 0,2,2,1,1,0,0,1,2,0,0,5255,2,2,0,5268,
scooby_state_402dfb|53|-1 0,0,1,0,0,3,0,2,0,0,1,5257,1,3,0,5268,
scooby_state_402dfb|40|-1 0,0,1,1,0,1,1,1,1,1,1,5257,1,0,1,5267,
scooby_state_402dfb|51|-1 1,0,0,0,3,0,0,3,0,2,0,5256,0,1,1,5267,
scooby_state_402dfb|44|-2 0,1,1,0,2,1,0,2,0,3,0,5234,0,0,0,5244,
scooby_state_402dfb|28|-1 1,0,1,1,2,0,1,1,0,1,1,5235,0,0,0,5244,
scooby_state_402dfb|61|-1 0,0,3,0,1,1,0,1,0,1,0,5231,3,0,0,5241,
scooby_state_402dfb|51|-2 1,2,1,0,3,1,1,0,0,1,2,5226,1,1,1,5241,
scooby_state_402dfb|19|-1 1,1,1,2,0,3,2,0,0,0,0,5229,1,0,1,5241,
scooby_state_402dfb|41|-1 1,2,1,0,1,2,1,2,0,1,0,5223,4,1,2,5241,
scooby_state_402dfb|33|-1 0,0,1,0,1,1,1,2,0,1,1,5230,0,1,2,5241,
scooby_state_402dfb|9|-2 2,2,0,0,1,0,1,0,2,0,1,5230,0,1,1,5241,
scooby_state_402dfb|53|-2 3,1,2,1,1,1,1,1,3,1,0,5225,1,0,0,5241,
scooby_state_402dfb|59|-1 0,1,1,0,3,1,1,0,0,1,2,5227,1,2,1,5241,
scooby_state_402dfb|60|-2 0,2,0,0,3,2,2,0,0,4,0,5222,3,2,1,5241,
scooby_state_402dfb|3|-1 1,1,0,0,1,4,2,0,1,1,0,5228,0,1,1,5241,
scooby_state_402dfb|30|-2 0,2,2,0,1,1,1,2,2,2,1,5226,0,0,0,5240,
scooby_state_402dfb|27|-2 2,2,1,0,1,1,1,2,3,2,0,5223,0,1,1,5240,
scooby_state_402dfb|46|-1 1,2,0,3,1,1,1,4,3,1,0,5220,0,0,3,5240,
scooby_state_402dfb|50|-1 1,0,2,0,0,1,1,1,1,3,1,5225,2,2,0,5240,
scooby_state_402dfb|55|-1 2,1,0,2,1,1,2,1,2,1,0,5225,0,2,0,5240,
scooby_state_402dfb|26|-1 2,1,0,2,1,1,2,0,1,1,1,5226,0,0,2,5240,
scooby_state_402dfb|16|-1 1,1,0,2,3,3,2,0,1,1,2,5220,1,1,2,5240,
scooby_state_402dfb|52|-2 2,1,0,0,2,1,0,0,0,4,0,5225,0,5,0,5240,
scooby_state_402dfb|29|-2 3,2,1,0,0,0,1,0,1,3,1,5225,2,0,0,5239,
scooby_state_402dfb|58|-1 2,0,2,0,1,1,0,0,1,1,0,5225,0,0,1,5234,
scooby_state_402dfb|5|-2 2,0,0,2,1,2,3,2,1,1,3,5216,0,0,0,5233,
scooby_state_402dfb|38|-1 0,0,0,1,1,2,0,1,0,1,1,5224,1,1,0,5233,
scooby_state_402dfb|57|-1 0,1,0,1,0,1,3,0,0,0,1,5203,2,0,1,5213,
scooby_state_402dfb|8|-2 2,1,2,0,0,3,1,2,1,1,0,5196,0,1,0,5210,
scooby_state_402dfb|28|-2 0,1,0,2,0,0,0,2,1,0,1,5201,1,0,0,5209,
scooby_state_402dfb|61|-2 1,1,1,1,2,1,1,0,2,0,1,5196,0,0,0,5207,
scooby_state_402dfb|35|-2 0,1,1,1,3,3,2,3,3,0,0,5188,0,2,0,5207,
scooby_state_402dfb|13|-2 3,1,1,0,0,1,1,2,2,3,0,5191,0,1,1,5207,
scooby_state_402dfb|32|-1 3,1,1,1,1,1,1,1,2,0,0,5192,0,2,1,5207,
scooby_state_402dfb|56|-1 0,1,2,2,2,0,0,1,0,1,0,5196,0,1,0,5206,
scooby_state_402dfb|0|-1 1,2,1,1,1,2,1,1,0,2,2,5189,1,0,2,5206,
scooby_state_402dfb|4|-1 1,1,1,1,0,1,0,0,2,0,1,5197,1,0,0,5206,
scooby_state_402dfb|10|-1 0,1,1,0,0,0,0,1,1,2,2,5198,0,0,0,5206,
scooby_state_402dfb|39|-1 1,1,0,2,1,2,2,1,3,1,1,5186,1,1,3,5206,
scooby_state_402dfb|22|-2 0,1,0,4,1,2,1,0,1,1,0,5195,0,0,0,5206,
scooby_state_402dfb|0|-2 1,0,1,1,2,1,0,0,1,1,1,5194,0,1,2,5206,
scooby_state_402dfb|3|-2 1,1,2,0,1,2,0,1,0,1,0,5196,0,0,1,5206,
scooby_state_402dfb|10|-2 1,3,2,1,0,1,0,1,0,0,1,5195,1,0,0,5206,
scooby_state_402dfb|18|-1 1,0,1,2,1,1,0,2,2,0,0,5195,0,1,0,5206,
scooby_state_402dfb|47|-2 1,2,2,0,2,1,3,1,0,2,1,5188,1,2,0,5206,
scooby_state_402dfb|60|-1 1,0,0,1,2,0,1,0,3,0,2,5193,1,0,2,5206,
scooby_state_402dfb|21|-2 0,1,1,0,0,2,2,3,1,1,1,5194,0,0,0,5206,
scooby_state_402dfb|30|-1 0,0,0,2,1,0,0,1,1,0,0,5200,0,0,1,5206,
scooby_state_402dfb|37|-1 0,1,2,3,1,1,0,0,2,1,1,5193,0,0,1,5206,
scooby_state_402dfb|45|-2 0,0,1,1,2,2,1,0,3,2,0,5191,1,1,1,5206,
scooby_state_402dfb|2|-1 0,0,1,0,0,2,0,1,0,2,1,5193,3,1,2,5206,
scooby_state_402dfb|26|-2 0,0,1,2,0,2,1,0,2,1,0,5195,0,0,2,5206,
scooby_state_402dfb|7|-2 0,0,0,3,2,1,3,1,1,1,2,5188,2,2,0,5206,
scooby_state_402dfb|55|-2 0,1,1,0,0,1,3,2,1,2,2,5191,0,0,1,5205,
scooby_state_402dfb|11|-1 1,2,0,0,2,1,3,1,1,0,0,5194,0,0,0,5205,
scooby_state_402dfb|32|-2 0,0,0,1,1,0,2,3,1,0,0,5197,0,0,0,5205,
scooby_state_402dfb|37|-2 0,0,1,1,1,0,2,1,1,1,2,5190,2,1,2,5205,
scooby_state_402dfb|21|-1 0,1,0,0,1,1,0,1,1,0,0,5199,0,1,0,5205,
scooby_state_402dfb|4|-2 0,2,0,0,1,0,2,0,1,3,2,5191,1,0,2,5205,
scooby_state_402dfb|13|-1 1,1,0,3,5,0,0,2,2,1,0,5188,1,0,1,5205,
scooby_state_402dfb|23|-1 0,2,1,0,1,0,1,0,0,1,0,5197,0,1,1,5205,
scooby_state_402dfb|36|-2 1,1,0,1,4,0,1,1,2,1,0,5186,1,0,1,5200,
scooby_state_402dfb|17|-1 3,0,1,1,1,1,0,2,1,0,1,5188,1,0,0,5200,
scooby_state_402dfb|27|-1 0,1,1,2,0,1,0,2,1,2,0,5187,1,1,0,5199,
scooby_state_402dfb|45|-1 1,0,2,0,0,1,0,2,0,0,0,5193,0,0,0,5199,
scooby_state_402dfb|12|-2 1,1,0,1,0,1,2,4,2,0,1,5183,0,1,2,5199,
scooby_state_402dfb|29|-1 0,2,1,0,1,3,1,0,1,0,1,5182,0,0,0,5192,
scooby_state_402dfb|34|-2 0,1,1,0,2,0,1,1,2,1,0,5164,2,1,0,5176,
scooby_state_402dfb|35|-1 2,0,1,1,0,2,0,1,1,0,1,5163,1,0,1,5174,
scooby_state_402dfb|48|-1 0,1,2,0,1,0,2,1,2,1,0,5161,1,0,2,5174,
scooby_state_402dfb|42|-1 0,2,0,1,0,1,0,0,2,1,0,5166,0,0,0,5173,
scooby_state_402dfb|23|-2 1,0,4,2,0,1,0,3,0,0,0,5160,0,0,1,5172,
scooby_state_402dfb|24|-1 1,1,0,1,0,1,1,0,2,1,2,5157,2,2,1,5172,
scooby_state_402dfb|54|-2 0,0,1,1,0,1,0,3,1,0,2,5161,1,1,0,5172,
scooby_state_402dfb|36|-1 0,1,1,0,2,1,1,1,1,2,0,5159,3,0,0,5172,
scooby_state_402dfb|50|-2 1,1,1,1,2,0,2,0,0,2,0,5158,1,0,3,5172,
scooby_state_402dfb|15|-1 1,0,2,0,0,1,0,1,0,2,0,5162,0,2,1,5172,
scooby_state_402dfb|33|-2 0,1,1,3,3,1,1,2,1,2,1,5154,1,1,0,5172,
scooby_state_402dfb|59|-2 0,0,2,0,0,1,0,2,2,0,1,5163,0,1,0,5172,
scooby_state_402dfb|14|-2 1,1,1,0,2,0,0,0,1,0,0,5165,0,0,1,5172,
scooby_state_402dfb|18|-2 2,2,1,0,2,2,0,1,2,2,0,5154,3,0,1,5172,
scooby_state_402dfb|57|-2 0,1,1,0,1,2,2,1,1,1,1,5159,0,2,0,5172,
scooby_state_402dfb|52|-1 0,0,0,1,0,1,1,0,2,1,0,5162,2,1,1,5172,
scooby_state_402dfb|25|-1 2,1,0,0,3,0,0,2,1,1,4,5155,1,1,0,5171,
scooby_state_402dfb|2|-2 1,3,0,1,0,1,2,0,1,1,0,5160,1,0,0,5171,
scooby_state_402dfb|19|-2 0,0,0,0,2,0,2,1,2,1,0,5162,0,1,0,5171,
scooby_state_402dfb|5|-1 0,1,2,0,1,2,0,4,0,0,1,5160,0,0,0,5171,
scooby_state_402dfb|34|-1 0,1,1,0,1,0,1,0,1,1,0,5163,0,1,1,5171,
scooby_state_402dfb|49|-1 0,2,1,0,0,0,3,0,0,1,0,5163,0,0,1,5171,
scooby_state_402dfb|8|-1 0,1,0,0,1,2,1,0,2,0,1,5162,0,0,1,5171,
scooby_state_402dfb|12|-1 2,0,0,0,0,1,0,1,1,1,1,5158,0,1,2,5168,
scooby_state_402dfb|20|-1 2,0,1,0,0,2,1,1,2,1,0,5154,0,0,1,5165,
scooby_state_402dfb|44|-1 1,2,1,2,0,1,2,0,0,0,0,5154,0,1,1,5165,
scooby_state_402dfb|54|-1 1,1,1,0,2,0,2,0,0,1,0,5157,0,0,0,5165,
scooby_state_402dfb|24|-2 1,1,2,0,2,1,1,1,0,0,0,5155,1,0,0,5165,
scooby_state_402dfb|15|-2 2,0,2,1,0,2,1,2,0,1,2,5128,1,2,0,5144,
scooby_state_402dfb|41|-2 0,2,2,3,1,0,0,1,1,0,1,5127,0,0,3,5141,
scooby_state_402dfb|1|-1 0,0,0,2,0,2,2,0,2,1,0,5130,1,0,0,5140,
scooby_state_402dfb|6|-1 1,2,1,1,0,1,3,1,0,1,0,5127,0,0,2,5140,
scooby_state_402dfb|49|-2 0,2,2,0,1,0,0,2,0,0,0,5128,0,2,1,5138,
scooby_state_402dfb|46|-2 1,3,2,0,2,2,0,1,2,0,2,5120,0,2,1,5138,
scooby_state_402dfb|48|-2 1,0,1,3,0,1,1,2,1,2,0,5126,0,0,0,5138,
scooby_state_402dfb|7|-1 1,1,2,2,0,1,1,0,0,1,1,5128,0,0,0,5138,
scooby_state_402dfb|9|-1 1,0,3,1,0,1,0,2,3,2,1,5118,3,2,0,5137,
scooby_state_402dfb|39|-2 0,1,1,0,3,0,1,0,0,2,0,5123,5,1,0,5137,
scooby_state_402dfb|16|-2 3,1,1,0,1,1,1,2,0,4,1,5119,0,1,2,5137,
scooby_state_402dfb|43|-1 1,1,1,0,2,3,0,3,1,2,0,5121,0,1,1,5137,
scooby_state_402dfb|1|-2 0,1,1,1,2,1,0,0,0,3,1,5126,0,1,0,5137,
scooby_state_402dfb|11|-2 0,0,1,0,1,1,1,2,2,1,0,5123,1,2,2,5137,
scooby_state_402dfb|62|0 4,0,0,0,2,0,3,0,0,0,0,5124,2,0,2,5137,
scooby_state_402dfb|31|-1 0,2,2,0,4,1,3,1,0,1,0,5111,2,2,1,5130,
scooby_state_402dfb|47|-1 1,1,0,1,0,0,0,0,1,2,0,5099,1,1,0,5107,
scooby_state_402dfb|25|-2 0,2,0,1,2,1,0,1,0,0,1,5094,0,2,0,5104,
scooby_state_402dfb|62|-1 2,4,2,0,3,0,4,0,0,1,0,5086,1,0,0,5103,
scooby_state_402dfb|6|-2 1,1,2,0,1,0,1,2,1,2,0,5090,1,1,0,5103,
scooby_state_402dc3|60|0 4088,0,0,0,0,0,0,0,0,1,0,0,0,0,0,4089,
scooby_state_402dc7|63|0 9,1,1,1,1,1,1,1,1,1,1,1734,0,0,0,1753,
scooby_state_403083|26|1 949,0,3,0,1,0,0,0,0,0,0,2,2,4,642,1603,
scooby_state_403083|48|1 923,0,2,2,1,2,5,0,3,3,2,2,1,3,631,1580,
scooby_state_403083|55|1 880,1,1,0,2,1,2,1,0,0,1,2,1,0,684,1576,
scooby_state_402dc7|15|-1 34,0,0,0,1,0,0,0,0,0,1,1532,1,0,0,1569,
scooby_state_402dc7|62|-1 32,0,0,0,0,0,1,0,0,1,0,1534,0,0,1,1569,
scooby_state_402dc7|24|-1 30,0,1,0,1,2,2,0,0,0,1,1523,0,0,0,1560,
scooby_state_403083|42|1 1019,2,1,2,2,2,0,2,0,2,2,0,1,3,514,1552,
scooby_state_402dc7|54|-1 27,0,0,1,0,0,0,0,0,0,0,1515,0,0,0,1543,
scooby_state_402dc7|29|-1 30,1,0,1,0,0,0,0,0,0,0,1506,0,0,0,1538,
scooby_state_402dc7|36|-1 31,0,0,0,0,0,0,1,0,0,0,1503,0,0,0,1535,
scooby_state_402dc7|47|-1 31,0,0,0,0,1,0,0,0,0,1,1497,0,0,0,1530,
scooby_state_402dc7|52|-1 34,0,0,0,0,1,0,0,0,0,0,1493,0,0,0,1528,
scooby_state_402dc7|37|-1 31,1,0,0,1,0,1,0,0,0,0,1483,0,1,0,1518,
scooby_state_402dc7|31|-1 36,0,0,0,0,0,0,0,0,1,0,1472,0,0,0,1509,
scooby_state_403083|33|1 874,0,1,1,2,0,3,1,1,1,1,2,1,1,615,1504,
scooby_state_402dc7|18|-1 35,0,0,0,1,0,1,0,0,0,0,1465,0,0,0,1502,
scooby_state_402dc7|43|-1 33,0,1,0,0,0,0,0,0,0,1,1465,0,0,1,1501,
scooby_state_402dc7|13|-1 32,1,0,1,1,0,0,0,0,0,0,1466,0,0,0,1501,
scooby_state_402dc7|27|-1 30,0,0,0,1,0,0,0,0,0,0,1469,0,1,0,1501,
scooby_state_402dc7|49|-1 30,1,0,0,1,0,2,0,0,0,0,1466,1,0,0,1501,
scooby_state_402dc7|25|-1 32,1,1,1,0,1,0,0,1,0,0,1463,0,0,0,1500,
scooby_state_402dc7|9|-1 31,1,0,0,0,0,0,1,0,0,0,1467,0,0,0,1500,
scooby_state_402dc7|1|-1 29,0,0,1,0,1,0,0,0,0,0,1466,1,0,0,1498,
scooby_state_402dc7|35|-1 31,0,1,0,0,0,0,1,1,1,0,1463,0,0,0,1498,
scooby_state_402dc7|28|-1 28,0,0,1,0,0,0,1,0,0,0,1466,0,1,0,1497,
scooby_state_402dc7|12|-1 30,1,0,0,0,2,0,0,0,0,0,1463,0,1,0,1497,
scooby_state_402dc7|39|-1 32,0,0,0,0,0,0,0,0,0,0,1461,0,0,0,1493,
scooby_state_403083|36|1 907,0,2,1,1,1,1,1,0,0,0,2,0,1,575,1492,
scooby_state_402dc7|32|-1 35,0,0,0,0,1,0,1,0,0,0,1449,1,0,1,1488,
scooby_state_402dc7|42|-1 27,0,2,0,0,0,0,0,0,0,0,1452,0,0,0,1481,
scooby_state_402dc7|50|-1 30,0,1,0,0,1,0,0,0,0,0,1444,0,0,0,1476,
scooby_state_402dc7|55|-1 32,0,2,0,0,0,0,0,0,0,0,1441,0,0,0,1475,
scooby_state_402dc7|17|-1 34,0,1,1,1,0,0,0,0,0,0,1437,0,0,0,1474,
scooby_state_402dc7|44|-1 30,0,0,0,0,0,0,0,0,1,0,1442,0,0,0,1473,
scooby_state_402dc7|20|-1 30,1,0,1,0,0,0,0,0,0,0,1441,0,0,0,1473,
scooby_state_402dc7|38|-1 28,1,0,0,0,1,0,0,2,0,1,1440,0,0,0,1473,
scooby_state_402dc7|5|-1 33,0,0,0,0,0,0,0,2,0,0,1432,0,0,0,1467,
scooby_state_402dc7|56|-1 33,0,0,1,0,0,0,0,0,0,0,1432,1,0,0,1467,
scooby_state_402dc7|4|-1 32,0,1,0,0,1,0,0,0,0,0,1433,0,0,0,1467,
scooby_state_402dc7|3|-1 29,0,0,1,1,0,0,0,1,0,0,1435,0,0,0,1467,
scooby_state_402dc7|8|-1 32,0,0,0,0,1,0,0,1,1,0,1431,0,1,0,1467,
scooby_state_402dc7|2|-1 29,0,0,1,1,0,0,1,1,1,0,1433,0,0,0,1467,
scooby_state_402dc7|23|-1 28,0,0,0,1,1,0,1,0,0,0,1435,0,0,1,1467,
scooby_state_402dc7|7|-1 30,2,0,0,0,0,0,0,0,0,0,1433,1,0,0,1466,
scooby_state_402dc7|60|-1 30,0,0,0,1,0,1,0,0,0,0,1434,0,0,0,1466,
scooby_state_402dc7|0|-1 30,0,1,0,0,0,0,0,0,0,0,1435,0,0,0,1466,
scooby_state_402dc7|6|-1 35,1,0,0,0,0,0,0,0,0,0,1428,0,0,0,1464,
scooby_state_402dc7|16|-1 30,0,0,1,0,0,1,0,0,0,0,1432,0,0,0,1464,
scooby_state_402dc7|48|-1 29,1,0,0,0,1,0,1,0,0,0,1430,1,0,0,1463,
scooby_state_402dc7|19|-1 31,0,0,1,0,1,0,2,0,1,0,1424,0,0,1,1461,
scooby_state_402dc7|45|-1 31,1,0,0,1,0,0,0,0,0,0,1419,0,0,0,1452,
scooby_state_403083|10|1 948,0,1,0,3,1,1,0,0,0,1,0,1,0,495,1451,
scooby_state_402dc7|51|-1 30,0,0,0,0,0,2,0,0,0,0,1408,0,0,0,1440,
scooby_state_403083|54|1 881,1,1,0,0,0,4,2,3,2,1,3,0,2,536,1436,
scooby_state_402dc7|21|-1 32,0,0,0,0,0,0,0,0,0,0,1401,0,0,0,1433,
scooby_state_402dc7|41|-1 28,2,0,1,0,0,0,0,0,0,0,1401,1,0,0,1433,
scooby_state_402dc7|40|-1 29,0,1,0,1,0,0,0,0,0,0,1400,1,0,1,1433,
scooby_state_402dc7|30|-1 34,1,1,0,0,0,0,0,0,0,0,1397,0,0,0,1433,
scooby_state_403083|13|1 871,0,1,1,1,1,0,2,0,2,0,0,1,1,551,1432,
scooby_state_402dc7|59|-1 31,0,1,0,0,0,0,0,0,0,1,1399,0,0,0,1432,
scooby_state_402dc7|14|-1 28,0,0,0,2,2,0,0,0,1,0,1399,0,0,0,1432,
scooby_state_403083|44|1 935,1,1,1,1,0,0,1,0,0,0,0,0,0,492,1432,
scooby_state_403083|58|1 927,0,1,2,0,0,0,1,0,0,1,0,1,0,499,1432,
scooby_state_402dc7|34|-1 29,0,1,0,0,0,0,0,0,0,0,1402,0,0,0,1432,
scooby_state_402dc7|53|-1 27,0,0,1,2,0,0,0,0,0,0,1401,0,0,1,1432,
scooby_state_402dc7|10|-1 30,0,0,0,0,0,1,1,0,0,1,1397,0,0,1,1431,
scooby_state_403083|49|1 885,2,0,0,0,0,0,1,0,0,1,1,0,0,540,1430,
scooby_state_403083|47|1 871,2,0,0,0,0,1,1,1,0,0,1,0,0,551,1428,
scooby_state_403083|12|1 942,2,0,0,0,0,0,1,0,0,0,2,1,4,474,1426,
scooby_state_402dc7|11|-1 28,0,0,0,0,0,1,0,0,0,1,1395,0,0,0,1425,
scooby_state_402dc7|57|-1 28,0,0,0,0,0,0,0,0,0,0,1397,0,0,0,1425,
scooby_state_403083|8|1 918,1,0,0,0,1,2,0,1,0,0,0,0,1,500,1424,
scooby_state_402dc7|58|-1 30,1,0,0,0,0,1,0,0,0,0,1375,0,0,2,1409,
scooby_state_403083|51|1 872,0,2,2,1,0,0,0,1,0,0,0,0,0,527,1405,
scooby_state_403083|45|1 863,1,2,1,2,3,1,0,1,0,1,2,0,0,525,1402,
scooby_state_402dc7|46|-1 26,0,0,0,0,0,1,0,0,1,0,1369,0,1,0,1398,
scooby_state_403083|52|1 889,1,0,0,0,1,0,1,0,0,0,0,2,0,503,1397,
scooby_state_403083|7|1 832,1,0,0,1,1,0,0,1,1,0,2,1,1,555,1396,
scooby_state_402dc7|61|-1 27,0,0,0,0,0,1,1,0,0,0,1366,1,0,0,1396,
scooby_state_403083|14|1 911,0,0,0,1,0,1,0,0,1,0,1,1,0,478,1394,
scooby_state_402dc7|26|-1 28,0,1,0,0,0,0,1,0,0,0,1358,2,1,0,1391,
scooby_state_403083|60|1 889,0,0,1,1,2,0,0,0,1,1,2,1,0,489,1387,
scooby_state_403083|9|1 892,0,1,1,2,0,2,1,1,0,0,1,1,0,484,1386,
scooby_state_403083|30|1 914,1,2,4,2,2,0,1,0,1,0,2,0,2,453,1384,
scooby_state_403083|38|1 898,0,0,1,1,3,1,0,0,0,1,1,0,1,477,1384,
scooby_state_403083|4|1 921,1,1,2,1,3,0,0,2,1,1,2,0,0,447,1382,
scooby_state_403083|11|1 829,0,1,1,0,0,1,0,0,0,0,1,1,0,548,1382,
scooby_state_403083|61|1 865,0,1,3,0,0,0,2,1,0,0,2,0,0,501,1375,
scooby_state_403083|32|1 906,0,0,0,0,2,0,0,0,1,1,3,0,0,462,1375,
scooby_state_403083|24|1 878,0,3,0,0,0,1,1,2,2,1,3,0,0,483,1374,
scooby_state_403083|2|1 880,0,0,2,1,0,1,2,1,1,0,0,2,2,477,1369,
scooby_state_403083|50|1 883,0,0,1,0,2,0,1,0,0,0,1,3,0,478,1369,
scooby_state_403083|40|1 876,1,0,1,1,1,2,0,0,0,0,1,0,0,482,1365,
scooby_state_402dc7|33|-1 31,1,0,0,0,0,0,0,1,2,0,1327,1,1,0,1364,
scooby_state_403083|63|1 853,0,0,0,1,1,0,1,3,0,0,0,0,0,505,1364,
scooby_state_402dc3|10|-5 1361,0,0,0,1,0,1,0,0,0,0,0,0,0,0,1363,
scooby_state_402dc3|47|-5 1362,0,0,0,0,0,0,0,0,0,1,0,0,0,0,1363,
scooby_state_402dc3|16|-5 1360,0,0,0,1,0,0,1,0,0,0,0,0,1,0,1363,
scooby_state_402dc3|26|-5 1363,0,0,0,0,0,0,0,0,0,0,0,0,0,0,1363,
scooby_state_402dc3|53|-5 1362,0,0,0,0,0,1,0,0,0,0,0,0,0,0,1363,
scooby_state_402dc7|22|-1 29,0,0,1,0,0,0,0,1,0,0,1331,1,0,0,1363,
scooby_state_402dc3|30|-5 1362,0,0,0,0,0,0,0,0,0,0,1,0,0,0,1363,
scooby_state_402dc3|20|-5 1361,1,1,0,0,0,0,0,0,0,0,0,0,0,0,1363,
scooby_state_402dc3|33|-5 1362,0,0,0,0,0,0,0,0,0,1,0,0,0,0,1363,
scooby_state_402dc3|57|-5 1362,0,1,0,0,0,0,0,0,0,0,0,0,0,0,1363,
scooby_state_402dcb|0|-4 1,0,1,0,0,0,0,0,1,0,0,0,1360,0,0,1363,
scooby_state_402dc3|23|-5 1355,1,0,1,0,0,1,1,0,1,2,1,0,0,0,1363,
scooby_state_402dc3|13|-5 1362,0,0,0,0,0,0,0,0,0,0,0,0,0,1,1363,
scooby_state_402dc3|40|-5 1361,0,0,1,0,0,0,0,0,0,0,0,1,0,0,1363,
scooby_state_402dc3|6|-5 1360,0,1,0,0,0,0,1,0,0,0,0,0,0,1,1363,
scooby_state_402dc3|43|-5 1361,0,0,1,0,0,0,0,0,0,1,0,0,0,0,1363,
scooby_state_402dc3|3|-5 1359,0,1,0,0,0,0,1,0,0,0,0,2,0,0,1363,
scooby_state_402dc3|50|-5 1362,0,1,0,0,0,0,0,0,0,0,0,0,0,0,1363,
scooby_state_402dc3|8|-5 1361,0,0,0,0,0,0,0,0,1,0,0,0,0,0,1362,
scooby_state_402dc3|25|-5 1357,0,0,1,0,1,0,1,1,1,0,0,0,0,0,1362,
scooby_state_402dc3|35|-5 1358,0,0,0,1,0,0,0,1,0,0,1,0,0,1,1362,
scooby_state_402dc3|48|-5 1359,0,0,0,1,0,0,0,0,0,0,0,1,0,1,1362,
scooby_state_402dc3|15|-5 1362,0,0,0,0,0,0,0,0,0,0,0,0,0,0,1362,
scooby_state_402dc3|46|-5 1359,0,0,0,0,1,0,0,0,0,0,0,0,1,1,1362,
scooby_state_402dc3|55|-5 1360,0,0,0,0,1,0,0,1,0,0,0,0,0,0,1362,
scooby_state_402dc3|21|-5 1361,0,0,0,0,0,0,1,0,0,0,0,0,0,0,1362,
scooby_state_402dc3|42|-5 1358,0,0,0,0,0,0,1,0,0,0,0,0,2,1,1362,
scooby_state_402dc3|1|-5 1360,0,0,0,0,0,0,0,0,1,0,0,0,0,1,1362,
scooby_state_402dc3|39|-5 1360,1,0,0,0,0,0,0,0,0,0,1,0,0,0,1362,
scooby_state_402dc3|38|-5 1359,0,0,0,0,1,0,0,0,0,0,1,0,0,1,1362,
scooby_state_402dc3|28|-5 1360,0,0,0,0,0,1,1,0,0,0,0,0,0,0,1362,
scooby_state_402dc3|18|-5 1360,0,0,0,0,0,0,0,0,0,0,0,0,1,1,1362,
scooby_state_402dc3|29|-5 1361,0,0,0,0,0,1,0,0,0,0,0,0,0,0,1362,
scooby_state_402dc3|9|-5 1361,1,0,0,0,0,0,0,0,0,0,0,0,0,0,1362,
scooby_state_402dc3|45|-5 1361,0,0,0,0,0,0,0,1,0,0,0,0,0,0,1362,
scooby_state_402dc3|12|-5 1361,0,0,0,0,0,1,0,0,0,0,0,0,0,0,1362,
scooby_state_402dc3|2|-5 1359,0,0,1,1,0,0,0,1,0,0,0,0,0,0,1362,
scooby_state_402dc3|22|-5 1360,0,0,1,0,0,0,0,0,0,0,0,1,0,0,1362,
scooby_state_402dc3|36|-5 1357,0,0,1,1,0,0,0,0,0,0,0,2,1,0,1362,
scooby_state_402dc3|19|-5 1361,0,0,1,0,0,0,0,0,0,0,0,0,0,0,1362,
scooby_state_402dc3|11|-5 1360,0,0,0,0,0,0,0,0,0,0,1,0,1,0,1362,
scooby_state_402dc3|56|-5 1358,0,1,0,1,0,1,0,0,0,0,0,1,0,0,1362,
scooby_state_402dc3|5|-5 1359,1,0,0,0,0,0,1,0,0,0,0,0,0,1,1362,
scooby_state_402dc3|32|-5 1361,0,0,1,0,0,0,0,0,0,0,0,0,0,0,1362,
scooby_state_402dc3|52|-5 1360,0,0,0,0,0,0,0,1,0,0,1,0,0,0,1362,
scooby_state_402dc3|49|-5 1360,0,0,0,0,1,0,0,0,0,0,0,0,0,1,1362,
scooby_state_402dc3|37|-5 1359,0,0,0,0,0,0,0,0,0,0,0,2,0,0,1361,
scooby_state_403083|46|1 896,1,2,1,0,0,0,0,0,0,0,0,1,0,458,1359,
scooby_state_403083|6|1 910,0,0,0,0,1,0,1,0,0,0,0,1,1,443,1357,
scooby_state_403083|19|1 841,1,0,0,2,0,0,1,0,0,2,1,0,1,506,1355,
scooby_state_403083|28|1 906,0,1,0,1,0,1,0,0,0,1,0,1,0,443,1354,
scooby_state_402dc3|0|-5 1352,0,0,0,0,0,0,0,1,0,0,0,0,0,0,1353,
scooby_state_403083|41|1 873,2,0,1,0,1,1,0,0,0,0,1,0,0,472,1351,
scooby_state_403083|17|1 876,0,1,1,0,1,2,1,0,1,1,1,0,0,463,1348,
scooby_state_402dc3|27|-5 1344,0,0,0,0,1,0,0,0,0,0,0,0,0,0,1345,
scooby_state_403083|22|1 872,0,0,0,0,3,0,0,0,0,0,0,0,0,469,1344,
scooby_state_403083|37|1 881,2,0,0,0,1,2,0,2,1,0,0,1,1,452,1343,
scooby_state_403083|21|1 838,1,2,1,0,2,0,0,1,1,2,1,0,0,493,1342,
scooby_state_403083|3|1 840,1,1,0,3,0,1,0,0,3,1,0,0,0,491,1341,
scooby_state_403083|57|1 865,0,0,1,1,1,2,0,0,0,1,1,0,1,466,1339,
scooby_state_403083|20|1 878,1,2,0,0,1,0,0,0,0,0,1,1,1,453,1338,
scooby_state_402dc3|54|-5 1336,0,0,0,0,0,0,0,0,0,0,0,0,0,1,1337,
scooby_state_403083|16|1 856,0,1,1,1,0,0,0,0,0,0,0,0,0,477,1336,
scooby_state_403083|62|1 856,1,1,0,0,0,0,0,1,0,1,2,0,1,473,1336,
scooby_state_403083|56|1 881,1,0,0,0,0,0,1,1,0,0,1,2,2,446,1335,
scooby_state_403083|15|1 857,0,0,1,0,0,1,0,1,0,1,0,0,0,470,1331,
scooby_state_402dc3|17|-5 1325,0,1,0,0,0,0,0,0,1,0,0,1,0,1,1329,
scooby_state_403083|1|1 817,1,0,1,1,1,1,0,0,0,0,1,0,0,505,1328,
scooby_state_402dc3|44|-5 1326,0,0,1,0,0,0,0,0,0,0,0,0,0,1,1328,
scooby_state_403083|35|1 871,1,1,0,2,1,1,0,0,0,0,1,1,0,449,1328,
scooby_state_402dc3|4|-5 1322,0,0,0,2,0,1,0,0,0,0,0,2,0,0,1327,
scooby_state_402dc3|51|-5 1323,0,0,0,0,0,0,2,1,0,0,0,1,0,0,1327,
scooby_state_402dc3|7|-5 1325,0,0,0,0,0,0,0,0,0,0,0,1,0,1,1327,
scooby_state_402dc3|24|-5 1325,0,0,0,0,0,0,1,0,0,0,0,0,1,0,1327,
scooby_state_402dc3|31|-5 1324,0,0,1,0,1,0,0,0,0,0,1,0,0,0,1327,
scooby_state_403083|43|1 853,4,0,1,1,2,0,1,1,2,0,0,1,1,460,1327,
scooby_state_402dc3|58|-5 1326,0,0,0,0,0,0,0,0,0,1,0,0,0,0,1327,
scooby_state_402dc3|41|-5 1322,0,2,0,0,0,1,0,1,0,1,0,0,0,0,1327,
scooby_state_402dc3|14|-5 1324,0,1,0,0,0,0,0,0,0,0,1,1,0,0,1327,
scooby_state_402dc3|34|-5 1324,0,1,0,0,0,0,0,1,0,0,0,0,0,1,1327,
scooby_state_403083|34|1 878,0,0,0,1,0,2,0,0,0,0,0,2,1,436,1320,
scooby_state_403083|18|1 856,0,0,2,1,0,0,0,0,0,1,1,0,0,456,1317,
scooby_state_403083|31|1 849,0,0,1,0,3,0,0,0,1,0,0,0,0,463,1317,
scooby_state_403083|25|1 832,1,1,0,1,1,0,0,0,0,0,0,0,0,479,1315,
scooby_state_403083|39|1 828,1,1,2,0,1,2,0,0,0,0,0,0,2,478,1315,
scooby_state_403083|59|1 849,1,0,0,0,1,0,1,0,2,0,2,0,0,457,1313,
scooby_state_403083|5|1 825,1,1,0,0,0,2,1,0,0,0,1,2,0,472,1305,
scooby_state_403083|29|1 844,1,1,0,2,0,1,1,0,0,0,1,1,0,452,1304,
scooby_state_403083|23|1 827,0,1,1,1,2,0,1,2,0,0,2,0,0,460,1297,
scooby_state_403083|53|1 840,0,0,1,0,0,0,0,0,1,0,0,0,0,450,1292,
scooby_state_403083|27|1 828,1,0,0,0,1,0,0,1,0,0,0,0,2,426,1259,
scooby_state_40307e|0|0 1095,0,0,0,0,0,0,0,0,0,0,0,0,0,0,1095,
scooby_state_403083|0|0 607,0,0,1,0,0,0,1,2,1,1,79,2,0,169,863,
scooby_state_40307e|2|0 561,0,0,0,0,0,0,0,0,0,0,0,0,0,0,561,
scooby_state_40307e|1|0 548,0,0,0,0,0,0,0,0,0,0,0,0,0,0,548,
scooby_state_402e18|54|0 6,0,0,0,0,0,0,0,0,0,0,476,0,0,0,482,
scooby_state_40307e|2|1 456,0,0,0,0,0,0,0,0,0,0,0,0,0,0,456,
scooby_state_40307e|3|0 431,0,0,0,0,0,0,0,0,0,0,0,0,0,0,431,
scooby_state_40307e|47|3 418,0,0,0,0,0,0,0,0,0,0,0,0,1,0,419,
scooby_state_402dc7|6|-2 0,0,0,0,0,0,0,0,0,0,0,414,0,0,1,415,
scooby_state_40307e|10|1 403,0,0,0,2,0,0,0,0,0,0,0,0,0,0,405,
scooby_state_402dc7|25|-2 0,0,0,0,0,0,0,0,0,0,0,405,0,0,0,405,
scooby_state_40307e|48|1 395,0,0,0,1,0,0,0,0,0,0,0,0,0,0,396,
scooby_state_40307e|44|1 395,0,0,0,0,0,0,0,0,0,0,0,0,0,0,395,
scooby_state_40307e|50|1 394,0,0,0,0,0,0,0,0,0,0,0,0,0,0,394,
scooby_state_40307e|4|0 384,0,1,1,0,0,0,0,0,0,0,0,0,0,0,386,
scooby_state_40307e|12|1 384,0,0,0,0,0,0,0,0,0,0,0,0,0,0,384,
scooby_state_40307e|62|1 382,0,0,0,0,0,0,0,0,0,0,0,0,0,0,382,
scooby_state_40307e|32|1 378,0,0,1,0,0,0,0,0,0,0,1,0,0,0,380,
scooby_state_40307e|20|1 373,0,0,0,0,0,0,0,0,0,0,0,0,0,0,373,
scooby_state_40307e|46|1 371,0,0,0,0,0,0,0,0,0,0,0,0,0,0,371,
scooby_state_402dc7|33|-2 0,0,0,0,0,0,0,0,0,0,0,365,0,1,0,366,
scooby_state_40307e|42|1 365,0,0,0,0,0,0,1,0,0,0,0,0,0,0,366,
scooby_state_40307e|60|1 362,0,0,0,0,0,0,0,0,0,0,0,0,0,0,362,
scooby_state_402dc7|46|-2 0,0,0,0,0,0,0,0,0,0,0,358,0,0,0,358,
scooby_state_40307e|4|1 357,0,0,0,0,0,0,0,0,0,0,0,0,1,0,358,
scooby_state_402dc7|48|-2 0,0,0,0,0,0,0,0,0,0,0,357,0,0,0,357,
scooby_state_40307e|58|1 355,0,0,0,0,0,0,0,0,0,0,0,0,0,0,355,
scooby_state_402dc7|11|-2 0,0,0,0,0,0,0,0,0,0,1,353,0,0,0,354,
scooby_state_403012|5|-2 46,0,207,0,0,0,0,0,0,0,0,0,98,0,0,351,
scooby_state_40307e|14|1 347,0,0,0,0,0,0,0,0,0,1,0,0,0,0,348,
scooby_state_402dc7|1|-2 0,0,0,0,0,0,0,0,0,0,0,347,0,0,0,347,
scooby_state_402dc7|16|-2 1,0,0,0,0,0,0,0,0,0,0,345,0,0,0,346,
scooby_state_40307e|16|1 345,0,0,0,0,1,0,0,0,0,0,0,0,0,0,346,
scooby_state_40307e|18|1 345,0,0,0,0,0,0,0,0,0,0,0,0,0,0,345,
scooby_state_40307e|34|1 342,0,0,0,0,0,0,0,0,1,0,0,0,0,0,343,
scooby_state_40307e|38|1 339,0,0,0,0,1,0,0,1,0,0,0,0,1,0,342,
scooby_state_402dc7|41|-2 0,0,0,0,0,0,0,0,0,0,0,342,0,0,0,342,
scooby_state_40307e|40|1 341,0,0,0,0,0,0,0,1,0,0,0,0,0,0,342,
scooby_state_40307e|36|1 342,0,0,0,0,0,0,0,0,0,0,0,0,0,0,342,
scooby_state_40307e|30|1 341,0,0,0,0,0,0,0,0,0,0,1,0,0,0,342,
scooby_state_40307e|54|1 342,0,0,0,0,0,0,0,0,0,0,0,0,0,0,342,
scooby_state_40307e|22|1 339,0,0,0,0,0,0,0,0,0,0,1,0,0,0,340,
scooby_state_40307e|56|1 338,0,0,0,0,0,0,0,0,1,0,0,0,0,0,339,
scooby_state_40307e|6|0 337,0,0,0,0,0,0,0,0,0,0,0,0,0,0,337,
scooby_state_40307e|25|1 337,0,0,0,0,0,0,0,0,0,0,0,0,0,0,337,
scooby_state_40307e|26|1 334,0,0,0,0,0,0,0,0,0,0,0,0,0,1,335,
scooby_state_40307e|24|1 334,0,0,0,0,0,0,0,0,0,0,0,0,0,0,334,
scooby_state_40307e|52|1 333,0,0,0,0,0,0,0,0,0,0,0,0,0,0,333,
scooby_state_40307e|8|1 331,0,0,1,0,0,0,0,0,0,0,0,0,0,0,332,
scooby_state_40307e|6|1 330,0,0,0,0,0,0,0,0,0,0,0,0,0,0,330,
scooby_state_40307e|1|1 328,0,0,0,0,0,0,0,0,0,0,0,0,0,0,328,
scooby_state_40307e|28|1 325,0,0,0,0,0,0,0,1,0,0,0,0,0,0,326,
scooby_state_40307e|57|1 326,0,0,0,0,0,0,0,0,0,0,0,0,0,0,326,
scooby_state_402dc7|39|-2 0,0,0,0,0,0,0,0,0,0,0,320,0,0,0,320,
scooby_state_40307e|61|1 318,0,0,0,0,0,0,0,0,0,0,0,0,0,0,318,
scooby_state_40307e|5|0 318,0,0,0,0,0,0,0,0,0,0,0,0,0,0,318,
scooby_state_40307e|7|0 317,0,0,0,0,0,0,0,0,0,0,0,0,0,0,317,
scooby_state_402dc7|19|-2 0,0,0,0,0,0,0,0,0,0,0,313,0,0,0,313,
scooby_state_402dc7|62|0 0,0,0,0,1,0,0,0,0,1,0,311,0,0,0,313,
scooby_state_402dc7|49|-2 0,0,0,0,0,0,0,0,0,0,0,312,0,0,0,312,
scooby_state_40307e|8|0 312,0,0,0,0,0,0,0,0,0,0,0,0,0,0,312,
scooby_state_402dc7|57|-2 0,0,0,0,0,0,0,0,0,0,0,312,0,0,0,312,
scooby_state_402dc7|34|-2 0,0,0,0,0,0,0,0,0,0,0,309,0,0,0,309,
scooby_state_402dc7|22|-2 0,0,0,0,1,0,1,0,0,0,0,303,0,0,0,305,
scooby_state_402dc7|30|-2 0,0,0,0,0,0,0,0,0,0,0,300,0,0,0,300,
scooby_state_40307e|53|1 296,0,0,0,0,0,0,0,0,0,1,0,0,0,0,297,
scooby_state_402f72|51|0 132,10,13,9,11,10,11,6,6,6,6,10,11,10,45,296,
scooby_state_40307e|12|0 296,0,0,0,0,0,0,0,0,0,0,0,0,0,0,296,
scooby_state_40307e|25|0 295,0,0,0,0,0,0,0,0,0,0,0,0,0,0,295,
scooby_state_40307e|29|1 295,0,0,0,0,0,0,0,0,0,0,0,0,0,0,295,
scooby_state_40307e|32|0 286,0,0,0,0,1,0,0,0,0,0,0,0,0,0,287,
scooby_state_402dc7|24|-2 0,0,0,0,0,0,0,0,0,0,0,285,0,0,0,285,
scooby_state_402dc7|26|-2 0,0,0,0,0,0,0,0,0,0,0,284,0,0,0,284,
scooby_state_40307e|17|1 283,0,0,1,0,0,0,0,0,0,0,0,0,0,0,284,
scooby_state_40307e|25|-1 280,0,0,0,0,0,0,0,0,0,0,1,0,0,0,281,
scooby_state_402dc7|59|-2 0,0,0,0,0,0,0,0,0,0,0,281,0,0,0,281,
scooby_state_40307e|10|0 280,0,0,0,0,1,0,0,0,0,0,0,0,0,0,281,
scooby_state_402dc7|61|-2 0,0,0,0,0,0,0,0,0,0,0,280,0,0,0,280,
scooby_state_402dc7|0|-2 0,0,1,0,0,0,0,0,0,0,0,278,0,0,0,279,
scooby_state_402dc7|4|-2 0,0,0,0,0,0,0,0,0,0,0,279,0,0,0,279,
scooby_state_402dc7|47|-2 0,0,0,0,0,0,0,0,0,0,0,279,0,0,0,279,
scooby_state_402dc7|10|-2 1,0,0,0,0,0,0,0,0,0,0,277,0,0,0,278,
scooby_state_402dc7|7|-2 0,0,0,0,0,0,0,0,0,0,0,278,0,0,0,278,
scooby_state_40307e|41|1 278,0,0,0,0,0,0,0,0,0,0,0,0,0,0,278,
scooby_state_402dc7|32|-2 0,0,0,0,0,0,0,0,0,0,0,278,0,0,0,278,
scooby_state_402dc7|2|-2 0,0,0,0,0,0,0,0,0,0,1,277,0,0,0,278,
scooby_state_402dc7|21|-2 0,0,0,1,0,0,0,0,0,0,0,277,0,0,0,278,
scooby_state_402dc7|50|-2 0,0,0,0,0,0,0,0,0,0,0,278,0,0,0,278,
scooby_state_402dc7|45|-2 1,0,0,0,0,0,0,0,0,0,0,277,0,0,0,278,
scooby_state_402dc7|23|-2 0,0,0,0,0,0,1,0,0,0,0,277,0,0,0,278,
scooby_state_402dc7|54|-2 0,0,0,0,0,0,0,0,0,0,0,277,0,0,0,277,
scooby_state_402dc7|18|-2 0,0,0,0,0,0,0,0,0,0,0,277,0,0,0,277,
scooby_state_40307e|59|1 277,0,0,0,0,0,0,0,0,0,0,0,0,0,0,277,
scooby_state_402dc7|14|-2 0,0,0,0,0,0,0,1,0,0,0,274,0,0,0,275,
scooby_state_402dc7|8|-2 0,0,0,0,0,0,0,0,0,0,0,273,0,0,1,274,
scooby_state_40307e|9|1 271,0,0,0,0,0,0,0,0,0,0,1,0,0,0,272,
scooby_state_402dc7|15|-2 0,0,0,0,0,0,0,0,0,0,0,271,0,0,0,271,
scooby_state_40307e|63|1 271,0,0,0,0,0,0,0,0,0,0,0,0,0,0,271,
scooby_state_40307e|13|1 270,0,0,0,0,0,0,0,0,0,0,0,0,0,0,270,
scooby_state_40307e|55|1 267,0,0,0,0,0,0,1,0,0,0,0,0,0,0,268,
scooby_state_403039|46|-2 1,0,0,0,0,0,0,0,0,0,0,267,0,0,0,268,
scooby_state_40307e|32|-1 266,0,0,0,0,0,0,0,0,0,1,0,0,0,0,267,
scooby_state_40307e|49|1 265,0,0,0,0,0,0,0,0,0,0,0,1,0,0,266,
scooby_state_40307e|37|1 265,0,0,1,0,0,0,0,0,0,0,0,0,0,0,266,
scooby_state_40307e|51|1 263,0,0,0,0,0,0,0,0,0,0,0,0,0,0,263,
scooby_state_40307e|27|1 262,1,0,0,0,0,0,0,0,0,0,0,0,0,0,263,
scooby_state_40307e|33|1 263,0,0,0,0,0,0,0,0,0,0,0,0,0,0,263,
scooby_state_40307e|35|1 261,0,0,0,0,1,0,0,0,0,0,0,0,0,0,262,
scooby_state_4030c1|51|0 0,0,0,0,0,0,0,0,0,0,0,262,0,0,0,262,
scooby_state_40307e|7|1 261,0,0,0,0,0,0,0,0,0,0,0,0,0,0,261,
scooby_state_402dc7|35|-2 0,0,0,0,0,0,0,0,0,0,0,261,0,0,0,261,
scooby_state_403012|42|-2 24,0,184,0,0,0,0,0,0,0,1,0,51,0,0,260,
scooby_state_40307e|31|1 259,0,0,0,0,0,0,0,0,0,0,0,0,0,0,259,
scooby_state_40307e|35|30 259,0,0,0,0,0,0,0,0,0,0,0,0,0,0,259,
scooby_state_40307e|39|1 257,0,1,0,0,0,0,0,0,0,0,0,0,0,0,258,
scooby_state_40307e|45|1 257,0,0,0,0,0,0,0,1,0,0,0,0,0,0,258,
scooby_state_403012|8|-2 23,0,187,0,0,0,0,0,0,0,0,0,47,0,0,257,
scooby_state_40307e|43|1 254,1,0,0,0,0,0,0,0,0,0,0,0,0,0,255,
scooby_state_40307e|54|8 252,0,0,0,0,0,0,0,0,0,0,0,0,0,0,252,
scooby_state_40307e|11|1 249,0,0,1,0,0,0,0,0,0,0,1,0,0,0,251,
scooby_state_403012|62|-1 9,0,185,0,0,0,0,0,2,0,0,9,16,0,30,251,
scooby_state_40307e|9|0 251,0,0,0,0,0,0,0,0,0,0,0,0,0,0,251,
scooby_state_40307e|3|1 251,0,0,0,0,0,0,0,0,0,0,0,0,0,0,251,
scooby_state_402dc7|5|-2 0,0,0,0,0,0,0,0,1,0,0,250,0,0,0,251,
scooby_state_402dc7|36|-2 0,0,0,0,0,0,0,0,0,0,0,250,0,0,0,250,
scooby_state_402dc7|12|-2 0,0,0,1,0,0,0,1,0,0,0,247,0,0,0,249,
scooby_state_403012|24|-2 17,1,178,0,0,0,0,0,0,0,0,0,52,0,0,248,
scooby_state_40307e|5|1 247,0,0,0,0,0,0,0,0,0,0,0,0,0,0,247,
scooby_state_40307e|21|1 246,0,0,0,0,0,0,0,0,0,0,0,0,0,0,246,
scooby_state_40307e|15|1 244,0,1,0,0,0,0,0,0,0,0,0,0,1,0,246,
scooby_state_40307e|11|0 245,0,0,0,0,0,0,0,0,0,0,0,0,0,0,245,
scooby_state_402dc7|37|-2 0,0,1,0,0,0,0,0,0,0,0,244,0,0,0,245,
scooby_state_402dc7|55|-2 0,0,0,0,0,0,0,0,0,0,0,244,0,0,0,244,
scooby_state_402dc7|9|-2 0,0,0,0,0,0,0,0,0,0,0,244,0,0,0,244,
scooby_state_402dc7|60|-2 0,0,0,0,0,0,0,0,0,0,0,244,0,0,0,244,
scooby_state_402dc7|13|-2 0,0,0,0,0,0,0,0,0,0,0,243,0,0,0,243,
scooby_state_40307e|19|1 243,0,0,0,0,0,0,0,0,0,0,0,0,0,0,243,
scooby_state_40307e|63|0 242,0,0,0,0,0,0,0,0,0,1,0,0,0,0,243,
scooby_state_402dc7|3|-2 0,0,0,0,0,0,0,0,0,0,0,243,0,0,0,243,
scooby_state_40307e|47|1 242,0,0,0,0,0,0,0,0,0,0,0,0,0,0,242,
scooby_state_40307e|54|6 241,0,0,0,0,0,0,0,0,0,0,0,0,0,0,241,
scooby_state_402dc7|44|-2 0,0,0,0,0,0,0,0,0,0,0,240,0,0,0,240,
scooby_state_402dc7|28|-2 0,0,0,0,0,0,0,0,0,0,0,240,0,0,0,240,
scooby_state_40307e|41|0 238,0,0,0,0,0,0,0,0,0,0,0,0,0,1,239,
scooby_state_402dc7|20|-2 0,0,0,0,0,0,0,0,0,0,0,237,0,0,0,237,
scooby_state_402fc5|44|3 233,0,0,0,0,0,0,0,0,0,0,0,4,0,0,237,
scooby_state_403012|56|-2 30,0,159,0,0,0,0,0,0,0,0,0,47,0,0,236,
scooby_state_403012|46|-2 29,0,166,0,0,0,0,0,0,0,0,0,39,0,0,234,
scooby_state_40307e|23|1 233,0,0,0,0,0,0,0,0,0,0,0,0,0,0,233,
scooby_state_403012|40|-2 22,0,174,0,0,0,0,0,0,0,0,0,37,0,0,233,
scooby_state_403012|0|-2 27,0,160,0,0,0,0,0,0,0,0,0,44,0,0,231,
scooby_state_403012|6|-2 20,0,161,1,0,0,0,0,1,0,0,0,45,0,0,228,
scooby_state_403012|48|-2 31,0,151,0,0,0,0,0,0,0,0,0,45,0,0,227,
scooby_state_402dc7|43|-2 0,0,0,0,0,0,0,0,0,0,0,224,0,0,0,224,
scooby_state_403012|44|-2 18,1,158,0,0,0,0,0,0,0,0,0,47,0,0,224,
scooby_state_403012|26|-2 28,0,143,0,0,0,0,0,0,0,0,0,51,0,0,222,
scooby_state_403012|52|-2 27,0,135,0,0,0,0,0,0,0,0,0,59,0,0,221,
scooby_state_403012|18|-2 21,1,161,0,0,0,0,0,0,0,0,0,37,0,0,220,
scooby_state_402dc7|52|-2 0,0,0,0,0,0,0,0,0,0,0,217,0,0,0,217,
scooby_state_402dc7|51|-2 0,0,0,0,0,0,0,0,0,0,0,217,0,0,0,217,
scooby_state_402dc7|56|-2 0,0,0,0,0,0,0,0,0,0,0,215,1,0,0,216,
scooby_state_402dc7|53|-2 0,0,0,0,0,0,0,0,0,0,0,215,1,0,0,216,
scooby_state_403012|16|-2 20,0,149,0,0,0,0,0,0,0,0,0,45,0,0,214,
scooby_state_403012|45|-2 29,0,136,0,0,0,0,0,0,0,0,0,48,0,0,213,
scooby_state_403012|2|-2 16,0,152,0,0,0,0,0,0,0,0,0,45,0,0,213,
scooby_state_403012|53|-2 24,0,150,0,0,1,0,0,0,0,0,0,37,0,0,212,
scooby_state_403012|31|-2 28,0,143,0,0,0,0,0,0,0,0,0,40,0,0,211,
scooby_state_403012|34|-2 19,0,157,0,0,0,0,0,0,0,0,0,35,0,0,211,
scooby_state_402dc7|42|-2 0,0,0,0,0,0,0,0,0,0,0,210,0,0,0,210,
scooby_state_402dc7|29|-2 0,0,0,0,0,0,0,0,0,0,0,210,0,0,0,210,
scooby_state_402dc7|58|-2 0,0,0,0,0,0,0,0,0,0,0,210,0,0,0,210,
scooby_state_40307e|48|-1 209,0,0,0,0,0,0,0,0,0,0,0,0,0,0,209,
scooby_state_403012|58|-2 25,0,140,0,0,0,0,0,0,0,0,0,43,0,0,208,
scooby_state_403012|20|-2 22,0,144,0,0,0,0,0,1,0,0,0,39,0,0,206,
scooby_state_403012|50|-2 22,0,153,0,0,0,0,0,0,0,0,0,30,0,0,205,
scooby_state_402dc7|17|-2 0,0,0,0,0,0,0,0,0,0,0,203,0,0,0,203,
scooby_state_403083|7|-29 36,9,6,9,11,9,10,10,9,11,10,1,0,10,61,202,
scooby_state_403012|14|-2 23,0,132,0,0,1,0,0,0,0,0,0,46,0,0,202,
scooby_state_403012|54|-2 22,0,146,0,0,0,0,0,0,0,0,0,34,0,0,202,
scooby_state_40307e|14|0 201,0,0,0,0,0,0,0,0,0,0,0,0,0,0,201,
scooby_state_403012|30|-2 16,0,145,0,0,0,0,0,0,0,0,0,39,0,0,200,
scooby_state_40307e|49|0 198,0,0,1,0,0,0,1,0,0,0,0,0,0,0,200,
scooby_state_40307e|50|-1 199,0,0,0,0,0,0,1,0,0,0,0,0,0,0,200,
scooby_state_403012|59|-2 19,0,138,0,0,0,0,0,0,0,0,0,43,0,0,200,
scooby_state_403012|38|-2 19,0,142,0,0,0,0,0,0,0,0,0,39,0,0,200,
scooby_state_402dc7|27|-2 0,0,0,0,0,0,0,0,0,0,0,199,0,0,0,199,
scooby_state_40307e|60|-1 198,0,0,0,0,0,0,0,0,0,0,0,0,0,0,198,
scooby_state_403012|32|-2 14,0,142,0,0,0,0,0,0,0,0,0,42,0,0,198,
scooby_state_403012|12|-2 26,1,124,0,0,0,1,0,0,0,0,0,45,0,0,197,
scooby_state_402dc7|40|-2 0,0,0,0,0,0,0,0,0,0,0,197,0,0,0,197,
scooby_state_403012|35|-2 16,0,140,0,0,0,0,1,0,0,0,0,39,0,0,196,
scooby_state_40307e|16|0 192,0,0,1,0,0,0,0,0,0,0,0,0,0,0,193,
scooby_state_40307e|13|0 193,0,0,0,0,0,0,0,0,0,0,0,0,0,0,193,
scooby_state_40307e|18|0 192,0,0,0,0,0,0,0,0,0,0,0,0,0,0,192,
scooby_state_402fc5|44|1 192,0,0,0,0,0,0,0,0,0,0,0,0,0,0,192,
scooby_state_403012|51|-2 20,0,140,0,0,0,0,0,0,0,0,0,32,0,0,192,
scooby_state_403012|4|-2 19,0,139,0,0,0,0,0,0,0,0,0,34,0,0,192,
scooby_state_402dc7|38|-2 0,0,0,0,0,0,0,0,0,0,0,191,0,0,0,191,
scooby_state_403012|43|-2 23,0,144,0,0,0,1,0,0,0,0,0,23,0,0,191,
scooby_state_403012|15|-2 12,0,138,0,0,0,0,0,0,0,0,0,41,0,0,191,
scooby_state_403012|60|-2 26,0,135,0,0,0,0,0,0,0,0,0,29,0,1,191,
scooby_state_402f3c|42|0 190,0,0,0,0,0,0,0,0,0,0,0,0,0,0,190,
scooby_state_403012|22|-2 9,0,140,0,0,0,0,0,0,0,0,0,41,0,0,190,
scooby_state_40307e|15|0 190,0,0,0,0,0,0,0,0,0,0,0,0,0,0,190,
scooby_state_403012|33|-2 15,0,136,0,0,0,0,0,0,0,0,0,38,0,0,189,
scooby_state_403012|10|-2 20,0,136,0,0,0,0,0,0,0,0,0,31,0,0,187,
scooby_state_403012|39|-2 17,0,131,0,0,0,0,0,0,0,0,0,39,0,0,187,
scooby_state_403012|23|-2 10,1,130,0,0,0,0,0,0,0,0,0,44,0,0,185,
scooby_state_40307e|61|0 183,0,0,0,0,0,0,0,0,0,1,0,0,0,0,184,
scooby_state_403012|55|-2 20,1,135,0,0,0,0,0,0,0,0,0,28,0,0,184,
scooby_state_403012|36|-2 21,0,124,0,0,0,0,0,0,0,0,0,39,0,0,184,
scooby_state_403012|57|-2 17,1,138,0,0,0,0,0,0,0,0,0,27,0,1,184,
scooby_state_403012|11|-2 28,1,129,0,0,0,0,0,1,0,0,0,22,0,0,181,
scooby_state_403012|3|-2 20,1,119,0,0,0,0,0,0,0,0,0,40,0,0,180,
scooby_state_403012|41|-2 13,0,134,0,0,0,0,0,0,0,0,0,33,0,0,180,
scooby_state_40307e|59|0 179,0,0,0,0,0,0,0,0,0,0,0,0,0,0,179,
scooby_state_40307e|20|0 179,0,0,0,0,0,0,0,0,0,0,0,0,0,0,179,
scooby_state_403012|21|-2 19,0,122,0,0,0,0,0,0,0,0,0,38,0,0,179,
scooby_state_403012|29|-2 16,0,131,0,0,0,0,0,0,0,0,0,29,1,1,178,
scooby_state_403012|49|-2 15,0,124,0,0,0,0,0,0,0,0,0,38,0,0,177,
scooby_state_403012|28|-2 11,0,129,0,0,0,0,0,0,0,0,1,36,0,0,177,
scooby_state_403012|27|-2 9,0,118,0,0,0,0,0,0,0,0,0,50,0,0,177,
scooby_state_403012|61|-2 19,0,121,0,0,0,0,0,0,0,0,0,36,0,0,176,
scooby_state_403012|7|-2 12,0,132,0,0,0,0,0,0,0,0,0,31,0,0,175,
scooby_state_403012|25|-2 15,0,126,0,0,0,0,0,0,0,0,0,34,0,0,175,
scooby_state_402dc7|31|-2 0,0,0,0,0,0,0,0,0,0,0,175,0,0,0,175,
scooby_state_40307e|47|0 174,0,0,0,0,0,0,0,0,0,0,0,0,0,0,174,
scooby_state_403012|19|-2 18,0,116,0,0,0,0,0,0,0,0,0,40,0,0,174,
scooby_state_40307e|51|0 173,0,0,0,0,0,0,0,0,0,0,0,0,0,0,173,
scooby_state_403012|9|-2 18,0,121,0,0,0,0,0,0,0,0,0,34,0,0,173,
scooby_state_40307e|10|-1 172,0,0,0,0,0,0,0,0,0,0,0,0,0,0,172,
scooby_state_40307e|43|0 172,0,0,0,0,0,0,0,0,0,0,0,0,0,0,172,
scooby_state_40307e|57|0 171,0,0,0,0,0,0,0,0,0,0,0,0,0,0,171,
scooby_state_403012|17|-2 12,0,129,0,0,0,0,0,0,0,0,0,27,0,0,168,
scooby_state_40307e|22|0 168,0,0,0,0,0,0,0,0,0,0,0,0,0,0,168,
scooby_state_40307e|53|0 167,0,0,0,0,0,0,0,0,0,0,0,0,0,0,167,
scooby_state_40307e|6|-1 165,0,0,0,0,0,0,0,0,0,0,0,0,0,0,165,
scooby_state_40307e|8|-1 165,0,0,0,0,0,0,0,0,0,0,0,0,0,0,165,
scooby_state_40307e|12|-1 165,0,0,0,0,0,0,0,0,0,0,0,0,0,0,165,
scooby_state_40307e|44|-1 164,0,0,0,0,0,0,0,0,0,0,0,0,0,0,164,
scooby_state_40307e|19|0 163,0,0,0,0,0,0,0,0,0,0,0,0,0,0,163,
scooby_state_40307e|29|0 162,0,0,0,0,0,0,0,0,0,0,0,0,0,0,162,
scooby_state_403012|47|-2 15,0,120,0,0,0,0,0,0,0,0,0,26,0,1,162,
scooby_state_40307e|46|-1 162,0,0,0,0,0,0,0,0,0,0,0,0,0,0,162,
scooby_state_40307e|23|0 161,0,0,0,0,0,0,0,0,0,0,0,0,0,0,161,
scooby_state_40307e|44|0 160,1,0,0,0,0,0,0,0,0,0,0,0,0,0,161,
scooby_state_403039|24|-2 0,0,0,0,0,0,0,0,0,0,0,161,0,0,0,161,
scooby_state_40307e|24|0 161,0,0,0,0,0,0,0,0,0,0,0,0,0,0,161,
scooby_state_40307e|62|-1 157,0,0,0,0,0,0,0,0,0,0,0,0,0,0,157,
scooby_state_403012|1|-2 16,0,116,0,0,0,0,0,0,0,0,0,25,0,0,157,
scooby_state_40307e|52|-1 153,0,0,0,0,0,0,0,0,0,0,0,0,0,0,153,
scooby_state_40307e|18|-1 153,0,0,0,0,0,0,0,0,0,0,0,0,0,0,153,
scooby_state_40307e|23|-1 151,0,0,0,0,0,0,0,0,0,0,0,0,0,0,151,
scooby_state_40307e|45|0 149,0,0,0,0,0,0,0,0,0,1,0,0,0,0,150,
scooby_state_40307e|53|-1 149,0,0,0,0,0,0,0,0,0,0,0,0,0,0,149,
scooby_state_40307e|46|0 148,0,0,0,0,0,0,0,0,0,0,0,0,0,0,148,
scooby_state_40307e|17|0 147,0,0,0,0,0,0,0,0,0,0,0,0,0,0,147,
scooby_state_403012|37|-2 9,0,105,0,0,0,0,0,0,0,0,0,31,0,0,145,
scooby_state_40307e|31|0 145,0,0,0,0,0,0,0,0,0,0,0,0,0,0,145,
scooby_state_40307e|58|-1 144,0,0,0,0,0,0,0,0,0,0,0,0,0,0,144,
scooby_state_403012|13|-2 12,0,104,0,0,0,0,0,0,0,0,0,28,0,0,144,
scooby_state_40307e|0|-1 144,0,0,0,0,0,0,0,0,0,0,0,0,0,0,144,
scooby_state_40307e|61|-1 143,0,0,0,0,0,0,0,0,0,0,0,0,0,0,143,
scooby_state_40307e|35|0 141,0,0,0,0,0,0,0,0,0,0,0,0,0,0,141,
scooby_state_40307e|56|-1 136,1,0,0,0,0,0,0,1,0,0,0,0,0,0,138,
scooby_state_40307e|38|-1 137,0,0,0,0,0,0,0,0,0,0,0,0,0,0,137,
scooby_state_40307e|7|-1 136,0,0,0,0,0,0,0,0,0,0,0,0,0,0,136,
scooby_state_40307e|62|0 136,0,0,0,0,0,0,0,0,0,0,0,0,0,0,136,
scooby_state_40307e|50|0 136,0,0,0,0,0,0,0,0,0,0,0,0,0,0,136,
scooby_state_40307e|39|0 136,0,0,0,0,0,0,0,0,0,0,0,0,0,0,136,
scooby_state_40307e|20|-1 135,0,0,0,0,0,0,0,0,0,0,0,0,0,0,135,
scooby_state_40307e|37|0 135,0,0,0,0,0,0,0,0,0,0,0,0,0,0,135,
scooby_state_40307e|6|-29 133,0,0,0,0,0,0,0,0,0,0,0,0,0,0,133,
scooby_state_40307e|21|0 132,0,0,0,0,0,0,0,0,0,0,0,0,0,0,132,
scooby_state_40307e|51|-1 132,0,0,0,0,0,0,0,0,0,0,0,0,0,0,132,
scooby_state_40307e|3|-1 130,0,1,0,0,0,0,0,0,0,0,0,0,0,0,131,
scooby_state_40307e|56|0 129,0,0,0,0,0,0,0,0,0,0,0,0,0,0,129,
scooby_state_40307e|41|-1 129,0,0,0,0,0,0,0,0,0,0,0,0,0,0,129,
scooby_state_403039|46|3 11,0,6,0,0,0,0,0,0,0,0,112,0,0,0,129,
scooby_state_40307e|54|-1 129,0,0,0,0,0,0,0,0,0,0,0,0,0,0,129,
scooby_state_40307e|54|0 127,0,0,0,0,0,0,0,0,0,0,0,0,0,0,127,
scooby_state_40307e|49|-1 127,0,0,0,0,0,0,0,0,0,0,0,0,0,0,127,
scooby_state_40307e|43|-1 127,0,0,0,0,0,0,0,0,0,0,0,0,0,0,127,
scooby_state_40307e|46|3 125,0,0,0,0,0,0,0,0,0,0,0,0,0,0,125,
scooby_state_40307e|14|-1 124,0,0,0,0,0,0,0,1,0,0,0,0,0,0,125,
scooby_state_40307e|59|-1 125,0,0,0,0,0,0,0,0,0,0,0,0,0,0,125,
scooby_state_40307e|27|0 124,0,0,0,0,0,0,0,0,0,0,0,0,0,0,124,
scooby_state_40307e|4|3 124,0,0,0,0,0,0,0,0,0,0,0,0,0,0,124,
scooby_state_40307e|28|-1 122,0,0,0,0,0,0,0,0,0,0,0,0,0,0,122,
scooby_state_40307e|55|0 122,0,0,0,0,0,0,0,0,0,0,0,0,0,0,122,
scooby_state_40307e|34|-1 122,0,0,0,0,0,0,0,0,0,0,0,0,0,0,122,
scooby_state_402fbc|43|-12 119,0,0,0,1,0,0,0,0,0,0,1,0,0,0,121,
scooby_state_40307e|22|-1 121,0,0,0,0,0,0,0,0,0,0,0,0,0,0,121,
scooby_state_40307e|4|-1 120,0,0,0,0,0,0,0,0,0,0,0,0,0,0,120,
scooby_state_40307e|57|-1 120,0,0,0,0,0,0,0,0,0,0,0,0,0,0,120,
scooby_state_40307e|4|4 119,0,0,0,0,0,0,0,0,0,0,0,0,0,0,119,
scooby_state_40307e|48|0 119,0,0,0,0,0,0,0,0,0,0,0,0,0,0,119,
scooby_state_40307e|58|3 119,0,0,0,0,0,0,0,0,0,0,0,0,0,0,119,
scooby_state_40307e|35|-1 119,0,0,0,0,0,0,0,0,0,0,0,0,0,0,119,
scooby_state_402fbc|43|2 119,0,0,0,0,0,0,0,0,0,0,0,0,0,0,119,
scooby_state_40307e|17|-1 118,0,0,0,0,0,0,0,0,0,0,0,0,0,0,118,
scooby_state_40307e|3|3 118,0,0,0,0,0,0,0,0,0,0,0,0,0,0,118,
scooby_state_40307e|33|0 118,0,0,0,0,0,0,0,0,0,0,0,0,0,0,118,
scooby_state_403083|36|30 118,0,0,0,0,0,0,0,0,0,0,0,0,0,0,118,
scooby_state_40307e|37|-1 116,0,1,0,0,0,0,0,1,0,0,0,0,0,0,118,
scooby_state_403039|58|-2 0,0,1,0,0,0,0,0,0,0,0,117,0,0,0,118,
scooby_state_40307e|63|3 118,0,0,0,0,0,0,0,0,0,0,0,0,0,0,118,
scooby_state_403039|46|-1 13,0,8,3,1,0,0,1,0,0,0,92,0,0,0,118,
scooby_state_40307e|47|-1 117,0,0,0,0,0,0,0,0,0,0,0,0,0,0,117,
scooby_state_40307e|24|-1 117,0,0,0,0,0,0,0,0,0,0,0,0,0,0,117,
scooby_state_40307e|36|-3 116,0,0,0,0,0,0,0,0,0,0,1,0,0,0,117,
scooby_state_40307e|0|-3 116,1,0,0,0,0,0,0,0,0,0,0,0,0,0,117,
scooby_state_40307e|16|-3 116,0,0,0,0,0,0,0,0,0,0,1,0,0,0,117,
scooby_state_40307e|26|-1 117,0,0,0,0,0,0,0,0,0,0,0,0,0,0,117,
scooby_state_40307e|60|0 116,0,0,0,0,0,0,0,0,0,0,0,0,0,0,116,
scooby_state_40307e|34|-3 116,0,0,0,0,0,0,0,0,0,0,0,0,0,0,116,
scooby_state_403039|61|-2 1,0,1,0,0,0,0,0,0,0,0,114,0,0,0,116,
scooby_state_40307e|52|3 115,0,0,0,0,0,0,0,0,0,0,0,0,0,0,115,
scooby_state_40307e|2|-1 115,0,0,0,0,0,0,0,0,0,0,0,0,0,0,115,
scooby_state_40307e|26|0 115,0,0,0,0,0,0,0,0,0,0,0,0,0,0,115,
scooby_state_403039|52|-2 0,0,1,0,0,0,0,0,0,0,0,114,0,0,0,115,
scooby_state_40307e|16|-1 114,0,0,0,0,0,0,0,0,0,0,0,0,0,0,114,
scooby_state_40307e|60|-3 113,0,0,0,0,0,0,0,0,0,0,0,1,0,0,114,
scooby_state_40301c|44|-2 13,0,25,0,0,0,0,0,0,0,0,0,76,0,0,114,
scooby_state_40307e|29|-1 113,0,0,0,0,0,0,0,0,0,0,0,0,0,0,113,
scooby_state_40307e|56|-3 112,0,0,0,0,1,0,0,0,0,0,0,0,0,0,113,
scooby_state_403039|30|-2 0,0,0,0,0,0,0,0,0,0,0,112,1,0,0,113,
scooby_state_40307e|59|3 113,0,0,0,0,0,0,0,0,0,0,0,0,0,0,113,
scooby_state_40307e|11|-1 113,0,0,0,0,0,0,0,0,0,0,0,0,0,0,113,
scooby_state_40307e|30|3 113,0,0,0,0,0,0,0,0,0,0,0,0,0,0,113,
scooby_state_40307e|24|-3 112,0,0,0,0,0,0,0,0,0,0,0,0,0,0,112,
scooby_state_403039|49|-2 0,0,0,0,0,0,0,0,0,0,0,112,0,0,0,112,
scooby_state_402f85|41|-1 111,0,0,0,0,0,0,0,0,0,0,0,0,0,0,111,
scooby_state_40307e|30|-1 110,0,0,0,0,0,0,0,0,0,1,0,0,0,0,111,
scooby_state_40301c|9|-2 24,0,46,0,0,0,0,0,1,0,0,0,40,0,0,111,
scooby_state_40307e|12|-3 110,0,0,0,0,0,0,0,0,0,0,0,0,0,0,110,
scooby_state_40307e|55|-1 110,0,0,0,0,0,0,0,0,0,0,0,0,0,0,110,
scooby_state_40307e|40|-3 109,0,0,0,0,0,0,0,0,0,1,0,0,0,0,110,
scooby_state_40307e|40|-1 110,0,0,0,0,0,0,0,0,0,0,0,0,0,0,110,
scooby_state_40307e|56|3 110,0,0,0,0,0,0,0,0,0,0,0,0,0,0,110,
scooby_state_40307e|5|4 108,0,0,0,0,1,0,0,0,0,0,0,0,0,0,109,
scooby_state_40307e|42|-1 109,0,0,0,0,0,0,0,0,0,0,0,0,0,0,109,
scooby_state_40307e|10|3 109,0,0,0,0,0,0,0,0,0,0,0,0,0,0,109,
scooby_state_402f3c|42|-12 107,0,0,0,0,0,0,0,0,0,0,2,0,0,0,109,
scooby_state_40307e|31|-1 107,0,1,0,0,0,0,0,0,0,0,0,0,0,0,108,
scooby_state_40307e|28|3 108,0,0,0,0,0,0,0,0,0,0,0,0,0,0,108,
scooby_state_40307e|52|0 108,0,0,0,0,0,0,0,0,0,0,0,0,0,0,108,
scooby_state_40307e|18|3 106,0,0,1,0,0,0,1,0,0,0,0,0,0,0,108,
scooby_state_40307e|3|2 107,0,0,0,0,0,0,0,0,0,0,0,0,0,0,107,
scooby_state_40307e|36|-1 107,0,0,0,0,0,0,0,0,0,0,0,0,0,0,107,
scooby_state_403083|26|0 74,0,0,0,0,0,0,0,0,0,0,25,0,0,7,106,
scooby_state_40307e|42|3 106,0,0,0,0,0,0,0,0,0,0,0,0,0,0,106,
scooby_state_40307e|47|4 106,0,0,0,0,0,0,0,0,0,0,0,0,0,0,106,
scooby_state_403039|6|-2 0,0,0,0,0,0,0,0,0,0,0,106,0,0,0,106,
scooby_state_40307e|2|2 106,0,0,0,0,0,0,0,0,0,0,0,0,0,0,106,
scooby_state_403083|33|0 59,0,0,0,0,0,0,0,0,0,1,37,0,0,9,106,
scooby_state_40307e|60|3 106,0,0,0,0,0,0,0,0,0,0,0,0,0,0,106,
scooby_state_403039|40|-2 0,0,2,0,0,0,0,0,0,0,0,104,0,0,0,106,
scooby_state_40307e|62|3 106,0,0,0,0,0,0,0,0,0,0,0,0,0,0,106,
scooby_state_40307e|1|-1 106,0,0,0,0,0,0,0,0,0,0,0,0,0,0,106,
scooby_state_40301c|28|-2 14,0,23,0,0,0,0,0,0,0,0,0,67,0,1,105,
scooby_state_40307e|46|-3 105,0,0,0,0,0,0,0,0,0,0,0,0,0,0,105,
scooby_state_40307e|54|-3 105,0,0,0,0,0,0,0,0,0,0,0,0,0,0,105,
scooby_state_403039|62|-1 3,0,2,1,0,0,0,0,0,0,0,98,0,0,0,104,
scooby_state_40307e|57|-3 104,0,0,0,0,0,0,0,0,0,0,0,0,0,0,104,
scooby_state_40307e|42|-3 104,0,0,0,0,0,0,0,0,0,0,0,0,0,0,104,
scooby_state_40307e|18|-3 103,0,0,0,0,0,0,0,0,0,0,0,0,0,0,103,
scooby_state_40307e|48|3 103,0,0,0,0,0,0,0,0,0,0,0,0,0,0,103,
scooby_state_40307e|12|3 103,0,0,0,0,0,0,0,0,0,0,0,0,0,0,103,
scooby_state_40307e|38|-3 103,0,0,0,0,0,0,0,0,0,0,0,0,0,0,103,
scooby_state_40307e|55|-3 103,0,0,0,0,0,0,0,0,0,0,0,0,0,0,103,
scooby_state_40307e|9|-1 103,0,0,0,0,0,0,0,0,0,0,0,0,0,0,103,
scooby_state_40307e|32|-3 102,0,0,0,0,1,0,0,0,0,0,0,0,0,0,103,
scooby_state_403039|10|-2 1,0,1,0,0,0,0,0,0,0,0,101,0,0,0,103,
scooby_state_40307e|20|-3 102,0,0,0,0,0,0,0,0,0,0,0,0,0,1,103,
scooby_state_40307e|28|0 103,0,0,0,0,0,0,0,0,0,0,0,0,0,0,103,
scooby_state_40307e|36|0 102,0,0,0,0,0,0,0,0,0,0,0,0,0,0,102,
scooby_state_40307e|58|-3 102,0,0,0,0,0,0,0,0,0,0,0,0,0,0,102,
scooby_state_40307e|36|3 102,0,0,0,0,0,0,0,0,0,0,0,0,0,0,102,
scooby_state_40307e|28|-3 102,0,0,0,0,0,0,0,0,0,0,0,0,0,0,102,
scooby_state_40307e|8|-3 101,0,0,0,0,0,0,1,0,0,0,0,0,0,0,102,
scooby_state_403039|38|-2 0,1,1,0,0,0,0,0,0,0,0,100,0,0,0,102,
scooby_state_40307e|39|-1 100,1,0,0,0,0,0,1,0,0,0,0,0,0,0,102,
scooby_state_40307e|58|0 102,0,0,0,0,0,0,0,0,0,0,0,0,0,0,102,
scooby_state_403012|5|-1 9,0,56,0,0,0,0,0,0,0,0,17,4,0,15,101,
scooby_state_40307e|14|3 101,0,0,0,0,0,0,0,0,0,0,0,0,0,0,101,
scooby_state_40307e|44|3 100,0,0,0,0,0,0,0,0,0,0,0,0,1,0,101,
scooby_state_403039|11|-2 0,0,0,0,0,0,0,0,0,0,0,101,0,0,0,101,
scooby_state_40307e|42|0 101,0,0,0,0,0,0,0,0,0,0,0,0,0,0,101,
scooby_state_40307e|6|3 101,0,0,0,0,0,0,0,0,0,0,0,0,0,0,101,
scooby_state_40307e|2|-3 101,0,0,0,0,0,0,0,0,0,0,0,0,0,0,101,
scooby_state_40307e|30|0 100,0,0,0,0,0,0,0,0,0,0,0,0,0,0,100,
scooby_state_40307e|59|-3 99,0,0,0,0,0,0,0,0,0,0,0,0,0,1,100,
scooby_state_403039|56|-2 0,0,1,0,0,0,0,0,0,0,0,99,0,0,0,100,
scooby_state_40307e|40|3 100,0,0,0,0,0,0,0,0,0,0,0,0,0,0,100,
scooby_state_40307e|6|-30 100,0,0,0,0,0,0,0,0,0,0,0,0,0,0,100,
scooby_state_40307e|20|3 100,0,0,0,0,0,0,0,0,0,0,0,0,0,0,100,
scooby_state_40307e|26|-3 99,0,0,0,0,0,0,0,0,0,0,0,0,0,0,99,
scooby_state_40307e|8|8 99,0,0,0,0,0,0,0,0,0,0,0,0,0,0,99,
scooby_state_40307e|40|0 99,0,0,0,0,0,0,0,0,0,0,0,0,0,0,99,
scooby_state_403039|42|-2 0,0,1,0,0,0,0,0,0,0,0,97,0,0,0,98,
scooby_state_403039|39|-2 0,0,0,0,0,0,0,0,0,0,0,98,0,0,0,98,
scooby_state_403039|59|-2 0,1,0,0,0,0,0,0,0,0,0,97,0,0,0,98,
scooby_state_40307e|34|3 98,0,0,0,0,0,0,0,0,0,0,0,0,0,0,98,
scooby_state_40301c|12|-2 15,1,24,0,0,0,0,0,0,0,0,0,58,0,0,98,
scooby_state_403039|15|-2 0,0,1,0,0,0,0,0,0,0,0,97,0,0,0,98,
scooby_state_40307e|9|8 98,0,0,0,0,0,0,0,0,0,0,0,0,0,0,98,
scooby_state_40307e|11|-3 98,0,0,0,0,0,0,0,0,0,0,0,0,0,0,98,
scooby_state_403039|19|-2 0,0,0,0,0,0,0,0,0,0,0,98,0,0,0,98,
[...]
scooby_state_40301c|12|-16 0,0,1,0,0,0,0,0,0,0,0,0,0,0,0,1,
scooby_state_402dc7|32|0 0,0,0,0,0,0,0,0,0,0,0,1,0,0,0,1,
scooby_state_40307e|49|36 1,0,0,0,0,0,0,0,0,0,0,0,0,0,0,1,
scooby_state_403012|27|-3 1,0,0,0,0,0,0,0,0,0,0,0,0,0,0,1,
scooby_state_402d40|44|0 1,0,0,0,0,0,0,0,0,0,0,0,0,0,0,1,
scooby_state_403039|6|-30 0,0,0,0,0,0,0,0,0,0,0,1,0,0,0,1,
scooby_state_403083|5|-3 1,0,0,0,0,0,0,0,0,0,0,0,0,0,0,1,
scooby_state_403012|12|-7 1,0,0,0,0,0,0,0,0,0,0,0,0,0,0,1,
scooby_state_403083|30|-5 1,0,0,0,0,0,0,0,0,0,0,0,0,0,0,1,
scooby_state_403083|36|4 1,0,0,0,0,0,0,0,0,0,0,0,0,0,0,1,
scooby_state_40307e|31|25 1,0,0,0,0,0,0,0,0,0,0,0,0,0,0,1,
scooby_state_403012|30|-3 1,0,0,0,0,0,0,0,0,0,0,0,0,0,0,1,
scooby_state_402d40|28|0 1,0,0,0,0,0,0,0,0,0,0,0,0,0,0,1,
scooby_state_40307e|22|-40 1,0,0,0,0,0,0,0,0,0,0,0,0,0,0,1,
scooby_state_402d9f|24|0 0,0,0,0,0,0,0,0,0,0,0,0,0,0,1,1,
scooby_state_402d79|30|-1 0,0,0,0,0,0,0,0,0,0,0,1,0,0,0,1,
scooby_state_402d40|31|0 1,0,0,0,0,0,0,0,0,0,0,0,0,0,0,1,
scooby_state_402e04|21|-2 0,0,0,0,0,0,1,0,0,0,0,0,0,0,0,1,
scooby_state_402d9f|62|0 0,0,1,0,0,0,0,0,0,0,0,0,0,0,0,1,
scooby_state_402d9f|23|0 1,0,0,0,0,0,0,0,0,0,0,0,0,0,0,1,
scooby_state_402d96|26|-1 1,0,0,0,0,0,0,0,0,0,0,0,0,0,0,1,
scooby_state_402d79|27|-1 0,0,0,0,0,0,0,0,0,0,0,1,0,0,0,1,
scooby_state_403012|5|-57 1,0,0,0,0,0,0,0,0,0,0,0,0,0,0,1,
scooby_state_40307e|6|-50 1,0,0,0,0,0,0,0,0,0,0,0,0,0,0,1,
scooby_state_403083|15|-4 1,0,0,0,0,0,0,0,0,0,0,0,0,0,0,1,
scooby_state_402d9f|21|0 0,0,0,0,0,0,1,0,0,0,0,0,0,0,0,1,
scooby_state_40307e|14|-18 1,0,0,0,0,0,0,0,0,0,0,0,0,0,0,1,
scooby_state_402e04|18|-1 1,0,0,0,0,0,0,0,0,0,0,0,0,0,0,1,
scooby_state_40307e|7|-38 1,0,0,0,0,0,0,0,0,0,0,0,0,0,0,1,
scooby_state_403083|52|-8 0,0,0,0,0,0,0,0,0,0,0,0,0,0,1,1,
scooby_state_40301c|42|-13 1,0,0,0,0,0,0,0,0,0,0,0,0,0,0,1,
scooby_state_402d9f|19|0 0,0,0,0,0,0,0,0,0,0,0,0,0,0,1,1,
scooby_state_403012|50|-3 1,0,0,0,0,0,0,0,0,0,0,0,0,0,0,1,
scooby_state_40307e|34|-9 1,0,0,0,0,0,0,0,0,0,0,0,0,0,0,1,
scooby_state_40301c|28|-32 0,0,0,0,0,0,0,0,0,0,0,0,1,0,0,1,
scooby_state_402d9f|31|0 1,0,0,0,0,0,0,0,0,0,0,0,0,0,0,1,
scooby_state_40307e|59|54 1,0,0,0,0,0,0,0,0,0,0,0,0,0,0,1,
scooby_state_403083|36|-6 1,0,0,0,0,0,0,0,0,0,0,0,0,0,0,1,
scooby_state_403039|52|-5 0,0,0,0,0,0,0,0,0,0,0,1,0,0,0,1,
scooby_state_41d402|16|1 1,0,0,0,0,0,0,0,0,0,0,0,0,0,0,1,
scooby_state_403012|30|-5 0,0,1,0,0,0,0,0,0,0,0,0,0,0,0,1,
scooby_state_403083|25|-6 1,0,0,0,0,0,0,0,0,0,0,0,0,0,0,1,
scooby_state_403012|24|-35 0,0,1,0,0,0,0,0,0,0,0,0,0,0,0,1,
scooby_state_402dc3|37|-3 1,0,0,0,0,0,0,0,0,0,0,0,0,0,0,1,
scooby_state_403083|50|3 1,0,0,0,0,0,0,0,0,0,0,0,0,0,0,1,
scooby_state_403012|19|-3 0,0,1,0,0,0,0,0,0,0,0,0,0,0,0,1,
scooby_state_403012|24|-8 0,0,1,0,0,0,0,0,0,0,0,0,0,0,0,1,
scooby_state_40307e|9|-33 1,0,0,0,0,0,0,0,0,0,0,0,0,0,0,1,
scooby_state_40307e|56|52 1,0,0,0,0,0,0,0,0,0,0,0,0,0,0,1,
scooby_state_40301c|20|0 0,0,0,0,0,0,0,0,0,0,0,0,1,0,0,1,
scooby_state_403012|44|-7 0,0,1,0,0,0,0,0,0,0,0,0,0,0,0,1,
scooby_state_40307e|48|-13 1,0,0,0,0,0,0,0,0,0,0,0,0,0,0,1,
scooby_state_40307e|3|-20 1,0,0,0,0,0,0,0,0,0,0,0,0,0,0,1,
scooby_state_40307e|21|-29 1,0,0,0,0,0,0,0,0,0,0,0,0,0,0,1,
scooby_state_40307e|32|-21 1,0,0,0,0,0,0,0,0,0,0,0,0,0,0,1,
scooby_state_40307e|20|-42 1,0,0,0,0,0,0,0,0,0,0,0,0,0,0,1,
scooby_state_403012|45|-6 1,0,0,0,0,0,0,0,0,0,0,0,0,0,0,1,
scooby_state_403083|43|-18 0,0,0,0,1,0,0,0,0,0,0,0,0,0,0,1,
scooby_state_402dc7|46|0 0,0,0,0,0,0,0,0,0,0,0,1,0,0,0,1,
scooby_state_403083|21|-29 1,0,0,0,0,0,0,0,0,0,0,0,0,0,0,1,
scooby_state_403083|36|-7 1,0,0,0,0,0,0,0,0,0,0,0,0,0,0,1,
scooby_state_403083|20|-7 1,0,0,0,0,0,0,0,0,0,0,0,0,0,0,1,
scooby_state_40301c|56|-7 0,0,0,0,0,0,0,0,0,0,0,0,1,0,0,1,
scooby_state_40307e|7|-27 1,0,0,0,0,0,0,0,0,0,0,0,0,0,0,1,
scooby_state_41d510|20|2 0,0,0,0,0,0,0,0,0,0,0,1,0,0,0,1,
scooby_state_403083|53|-9 1,0,0,0,0,0,0,0,0,0,0,0,0,0,0,1,
scooby_state_403039|54|-9 0,0,0,0,0,0,0,0,0,0,0,1,0,0,0,1,
scooby_state_403083|6|-48 1,0,0,0,0,0,0,0,0,0,0,0,0,0,0,1,
scooby_state_403012|21|-8 1,0,0,0,0,0,0,0,0,0,0,0,0,0,0,1,
scooby_state_403039|46|-14 0,0,0,0,0,0,0,0,0,0,0,1,0,0,0,1,
scooby_state_40307e|16|-15 1,0,0,0,0,0,0,0,0,0,0,0,0,0,0,1,
scooby_state_40307e|25|-18 1,0,0,0,0,0,0,0,0,0,0,0,0,0,0,1,
scooby_state_40307e|34|-27 1,0,0,0,0,0,0,0,0,0,0,0,0,0,0,1,
scooby_state_403083|20|-40 1,0,0,0,0,0,0,0,0,0,0,0,0,0,0,1,
scooby_state_402dc7|16|0 0,0,0,0,0,0,0,0,0,0,0,1,0,0,0,1,
scooby_state_402d96|36|-1 1,0,0,0,0,0,0,0,0,0,0,0,0,0,0,1,
scooby_state_403012|39|-3 0,0,1,0,0,0,0,0,0,0,0,0,0,0,0,1,
scooby_state_403012|63|36 1,0,0,0,0,0,0,0,0,0,0,0,0,0,0,1,
scooby_state_403012|40|12 1,0,0,0,0,0,0,0,0,0,0,0,0,0,0,1,
scooby_state_402d40|7|0 1,0,0,0,0,0,0,0,0,0,0,0,0,0,0,1,
scooby_state_403083|26|-15 1,0,0,0,0,0,0,0,0,0,0,0,0,0,0,1,
scooby_state_402d79|33|-1 0,0,0,0,0,0,0,0,0,0,0,1,0,0,0,1,
scooby_state_40307e|15|-36 1,0,0,0,0,0,0,0,0,0,0,0,0,0,0,1,
scooby_state_40301c|40|-8 0,0,0,0,0,0,0,0,0,0,0,1,0,0,0,1,
scooby_state_402d9f|8|0 0,0,0,0,0,0,0,0,0,0,0,0,0,0,1,1,
scooby_state_403083|38|-3 1,0,0,0,0,0,0,0,0,0,0,0,0,0,0,1,
scooby_state_40301c|37|-7 0,0,1,0,0,0,0,0,0,0,0,0,0,0,0,1,
scooby_state_40301c|49|2 1,0,0,0,0,0,0,0,0,0,0,0,0,0,0,1,
scooby_state_40307e|20|-15 1,0,0,0,0,0,0,0,0,0,0,0,0,0,0,1,
scooby_state_403012|2|-34 1,0,0,0,0,0,0,0,0,0,0,0,0,0,0,1,
scooby_state_40307e|36|-20 1,0,0,0,0,0,0,0,0,0,0,0,0,0,0,1,
scooby_state_403083|53|-4 1,0,0,0,0,0,0,0,0,0,0,0,0,0,0,1,
scooby_state_403039|10|-14 0,0,0,0,0,0,0,0,0,0,0,1,0,0,0,1,
scooby_state_40307a|1|0 1,0,0,0,0,0,0,0,0,0,0,0,0,0,0,1,
scooby_state_403012|63|46 1,0,0,0,0,0,0,0,0,0,0,0,0,0,0,1,
scooby_state_403083|14|-4 1,0,0,0,0,0,0,0,0,0,0,0,0,0,0,1,
scooby_state_40307e|37|34 1,0,0,0,0,0,0,0,0,0,0,0,0,0,0,1,
scooby_state_40307e|0|-55 1,0,0,0,0,0,0,0,0,0,0,0,0,0,0,1,
scooby_state_403012|26|-4 1,0,0,0,0,0,0,0,0,0,0,0,0,0,0,1,
scooby_state_40301c|12|-17 1,0,0,0,0,0,0,0,0,0,0,0,0,0,0,1,
scooby_state_402d40|8|0 1,0,0,0,0,0,0,0,0,0,0,0,0,0,0,1,
scooby_state_403039|53|7 0,0,0,0,0,0,0,0,0,0,0,1,0,0,0,1,
scooby_state_403012|12|-6 0,0,1,0,0,0,0,0,0,0,0,0,0,0,0,1,
scooby_state_41a829|32|1 1,0,0,0,0,0,0,0,0,0,0,0,0,0,0,1,
scooby_state_40307e|54|18 1,0,0,0,0,0,0,0,0,0,0,0,0,0,0,1,
scooby_state_403083|4|-4 1,0,0,0,0,0,0,0,0,0,0,0,0,0,0,1,
scooby_state_403012|0|-5 0,0,1,0,0,0,0,0,0,0,0,0,0,0,0,1,
scooby_state_403039|61|2 0,0,0,0,0,0,0,0,0,0,0,1,0,0,0,1,
scooby_state_40307e|18|-13 1,0,0,0,0,0,0,0,0,0,0,0,0,0,0,1,
scooby_state_40301c|46|-7 0,0,0,0,0,0,0,0,0,0,0,0,1,0,0,1,
scooby_state_403012|34|-14 1,0,0,0,0,0,0,0,0,0,0,0,0,0,0,1,
scooby_state_402dc3|34|-2 1,0,0,0,0,0,0,0,0,0,0,0,0,0,0,1,
scooby_state_402e04|56|1 1,0,0,0,0,0,0,0,0,0,0,0,0,0,0,1,
scooby_state_40307e|16|-12 1,0,0,0,0,0,0,0,0,0,0,0,0,0,0,1,
scooby_state_40307e|46|18 1,0,0,0,0,0,0,0,0,0,0,0,0,0,0,1,
scooby_state_402f82|62|1 1,0,0,0,0,0,0,0,0,0,0,0,0,0,0,1,
scooby_state_40307e|16|-40 1,0,0,0,0,0,0,0,0,0,0,0,0,0,0,1,
scooby_state_40307e|4|-50 1,0,0,0,0,0,0,0,0,0,0,0,0,0,0,1,
scooby_state_403012|9|-54 1,0,0,0,0,0,0,0,0,0,0,0,0,0,0,1,
scooby_state_40307e|25|-11 1,0,0,0,0,0,0,0,0,0,0,0,0,0,0,1,
scooby_state_403012|30|-33 1,0,0,0,0,0,0,0,0,0,0,0,0,0,0,1,
scooby_state_40307e|26|-25 1,0,0,0,0,0,0,0,0,0,0,0,0,0,0,1,
scooby_state_403083|10|-53 1,0,0,0,0,0,0,0,0,0,0,0,0,0,0,1,
scooby_state_403012|63|19 0,0,1,0,0,0,0,0,0,0,0,0,0,0,0,1,
scooby_state_402dc7|22|0 0,0,0,0,0,0,0,0,0,0,0,1,0,0,0,1,
scooby_state_403012|45|-9 0,0,1,0,0,0,0,0,0,0,0,0,0,0,0,1,
scooby_state_403083|10|-13 1,0,0,0,0,0,0,0,0,0,0,0,0,0,0,1,
scooby_state_40307e|12|-51 1,0,0,0,0,0,0,0,0,0,0,0,0,0,0,1,
scooby_state_403104|4|1 1,0,0,0,0,0,0,0,0,0,0,0,0,0,0,1,
scooby_state_40301c|48|35 0,0,0,0,0,0,0,0,0,0,0,0,1,0,0,1,
scooby_state_403083|41|-8 1,0,0,0,0,0,0,0,0,0,0,0,0,0,0,1,
scooby_state_403083|14|-47 1,0,0,0,0,0,0,0,0,0,0,0,0,0,0,1,
scooby_state_403012|63|43 1,0,0,0,0,0,0,0,0,0,0,0,0,0,0,1,
scooby_state_40307e|13|-24 1,0,0,0,0,0,0,0,0,0,0,0,0,0,0,1,
scooby_state_402dc7|12|0 0,0,0,0,0,0,0,0,0,0,0,1,0,0,0,1,
scooby_state_402d79|53|-2 1,0,0,0,0,0,0,0,0,0,0,0,0,0,0,1,
scooby_state_40307e|47|20 1,0,0,0,0,0,0,0,0,0,0,0,0,0,0,1,
scooby_state_403083|38|-9 1,0,0,0,0,0,0,0,0,0,0,0,0,0,0,1,
scooby_state_403012|8|-32 1,0,0,0,0,0,0,0,0,0,0,0,0,0,0,1,
scooby_state_402e04|50|-2 0,0,0,0,0,0,0,0,0,1,0,0,0,0,0,1,
scooby_state_403083|18|-1 0,0,1,0,0,0,0,0,0,0,0,0,0,0,0,1,
scooby_state_40307e|25|-27 1,0,0,0,0,0,0,0,0,0,0,0,0,0,0,1,
scooby_state_40301c|57|0 0,0,0,0,0,0,0,0,0,0,0,0,1,0,0,1,
scooby_state_402ff0|63|0 1,0,0,0,0,0,0,0,0,0,0,0,0,0,0,1,
scooby_state_403083|10|-43 0,0,0,0,0,0,0,0,0,0,0,1,0,0,0,1,
scooby_state_403083|7|-2 0,1,0,0,0,0,0,0,0,0,0,0,0,0,0,1,
scooby_state_403083|24|-2 0,1,0,0,0,0,0,0,0,0,0,0,0,0,0,1,
scooby_state_403083|40|-22 1,0,0,0,0,0,0,0,0,0,0,0,0,0,0,1,
scooby_state_403012|5|-26 1,0,0,0,0,0,0,0,0,0,0,0,0,0,0,1,
scooby_state_403083|5|-56 1,0,0,0,0,0,0,0,0,0,0,0,0,0,0,1,
scooby_state_40307e|32|29 1,0,0,0,0,0,0,0,0,0,0,0,0,0,0,1,
scooby_state_40307e|49|47 1,0,0,0,0,0,0,0,0,0,0,0,0,0,0,1,
scooby_state_40307e|12|-11 1,0,0,0,0,0,0,0,0,0,0,0,0,0,0,1,
scooby_state_403083|26|-34 1,0,0,0,0,0,0,0,0,0,0,0,0,0,0,1,
scooby_state_403083|0|-43 1,0,0,0,0,0,0,0,0,0,0,0,0,0,0,1,
scooby_state_403012|32|-6 0,0,1,0,0,0,0,0,0,0,0,0,0,0,0,1,
scooby_state_40301c|49|-7 0,0,0,0,0,0,0,0,0,0,0,0,1,0,0,1,
scooby_state_40307e|28|-27 1,0,0,0,0,0,0,0,0,0,0,0,0,0,0,1,
scooby_state_403039|61|6 0,0,0,0,0,0,0,0,0,0,0,1,0,0,0,1,
scooby_state_403012|16|-13 1,0,0,0,0,0,0,0,0,0,0,0,0,0,0,1,
scooby_state_403039|25|-38 0,0,0,0,0,0,0,0,0,0,0,1,0,0,0,1,
scooby_state_403012|2|-49 1,0,0,0,0,0,0,0,0,0,0,0,0,0,0,1,
scooby_state_403012|33|23 0,0,1,0,0,0,0,0,0,0,0,0,0,0,0,1,
scooby_state_402dc7|11|0 0,0,0,0,0,0,0,0,0,0,0,1,0,0,0,1,
scooby_state_403039|34|0 0,0,0,0,0,0,0,0,0,0,0,1,0,0,0,1,
scooby_state_41ad00|52|1 1,0,0,0,0,0,0,0,0,0,0,0,0,0,0,1,
scooby_state_41ac81|50|1 1,0,0,0,0,0,0,0,0,0,0,0,0,0,0,1,
scooby_state_41a8e6|35|2 1,0,0,0,0,0,0,0,0,0,0,0,0,0,0,1,
scooby_state_40307e|48|29 1,0,0,0,0,0,0,0,0,0,0,0,0,0,0,1,
scooby_state_40307e|3|-47 1,0,0,0,0,0,0,0,0,0,0,0,0,0,0,1,
scooby_state_40307e|61|27 1,0,0,0,0,0,0,0,0,0,0,0,0,0,0,1,
scooby_state_403012|42|-6 1,0,0,0,0,0,0,0,0,0,0,0,0,0,0,1,
scooby_state_403012|9|-5 0,0,1,0,0,0,0,0,0,0,0,0,0,0,0,1,
scooby_state_403012|44|-9 0,0,1,0,0,0,0,0,0,0,0,0,0,0,0,1,
scooby_state_403083|40|-15 1,0,0,0,0,0,0,0,0,0,0,0,0,0,0,1,
scooby_state_40307e|21|-18 1,0,0,0,0,0,0,0,0,0,0,0,0,0,0,1,
scooby_state_40307e|16|-43 1,0,0,0,0,0,0,0,0,0,0,0,0,0,0,1,
scooby_state_403012|27|-6 1,0,0,0,0,0,0,0,0,0,0,0,0,0,0,1,
scooby_state_403083|17|4 1,0,0,0,0,0,0,0,0,0,0,0,0,0,0,1,
scooby_state_403012|20|-9 0,0,1,0,0,0,0,0,0,0,0,0,0,0,0,1,
scooby_state_403039|6|-36 0,0,0,0,0,0,0,0,0,0,0,1,0,0,0,1,
scooby_state_403039|55|-1 0,0,0,0,0,0,0,0,0,0,0,1,0,0,0,1,
scooby_state_40307e|62|43 1,0,0,0,0,0,0,0,0,0,0,0,0,0,0,1,
scooby_state_403039|18|0 0,0,0,0,0,0,0,0,0,0,0,1,0,0,0,1,
scooby_state_41d4c1|19|-1 0,0,0,0,0,0,0,0,0,0,0,0,1,0,0,1,
scooby_state_403012|31|-8 0,0,1,0,0,0,0,0,0,0,0,0,0,0,0,1,
scooby_state_40307e|54|31 1,0,0,0,0,0,0,0,0,0,0,0,0,0,0,1,
scooby_state_40307e|24|-20 1,0,0,0,0,0,0,0,0,0,0,0,0,0,0,1,
scooby_state_402f3c|42|-1 1,0,0,0,0,0,0,0,0,0,0,0,0,0,0,1,
scooby_state_4030ff|54|1 1,0,0,0,0,0,0,0,0,0,0,0,0,0,0,1,
scooby_state_403083|18|-34 1,0,0,0,0,0,0,0,0,0,0,0,0,0,0,1,
scooby_state_40307e|46|27 1,0,0,0,0,0,0,0,0,0,0,0,0,0,0,1,
scooby_state_40307e|22|-6 1,0,0,0,0,0,0,0,0,0,0,0,0,0,0,1,
scooby_state_403083|28|-2 0,0,0,0,0,0,0,0,0,0,0,0,0,0,1,1,
scooby_state_40307e|52|29 1,0,0,0,0,0,0,0,0,0,0,0,0,0,0,1,
scooby_state_40307e|20|18 1,0,0,0,0,0,0,0,0,0,0,0,0,0,0,1,
scooby_state_403012|16|-6 0,0,1,0,0,0,0,0,0,0,0,0,0,0,0,1,
scooby_state_402f3c|42|1 0,1,0,0,0,0,0,0,0,0,0,0,0,0,0,1,
scooby_state_403083|38|-2 1,0,0,0,0,0,0,0,0,0,0,0,0,0,0,1,
scooby_state_40307e|12|-38 1,0,0,0,0,0,0,0,0,0,0,0,0,0,0,1,
scooby_state_40307e|0|-14 1,0,0,0,0,0,0,0,0,0,0,0,0,0,0,1,
scooby_state_403012|9|-3 1,0,0,0,0,0,0,0,0,0,0,0,0,0,0,1,
scooby_state_403012|52|-6 0,0,1,0,0,0,0,0,0,0,0,0,0,0,0,1,
scooby_state_403012|24|-9 0,0,1,0,0,0,0,0,0,0,0,0,0,0,0,1,
scooby_state_403083|32|-13 1,0,0,0,0,0,0,0,0,0,0,0,0,0,0,1,
scooby_state_403083|44|-2 0,0,0,0,0,0,0,0,0,0,0,0,0,0,1,1,
scooby_state_403012|9|-8 0,0,1,0,0,0,0,0,0,0,0,0,0,0,0,1,
scooby_state_403012|23|-8 1,0,0,0,0,0,0,0,0,0,0,0,0,0,0,1,
scooby_state_402e04|59|-2 1,0,0,0,0,0,0,0,0,0,0,0,0,0,0,1,
scooby_state_403012|33|-30 1,0,0,0,0,0,0,0,0,0,0,0,0,0,0,1,
scooby_state_41a7c2|31|1 1,0,0,0,0,0,0,0,0,0,0,0,0,0,0,1,
scooby_state_402e04|58|0 1,0,0,0,0,0,0,0,0,0,0,0,0,0,0,1,
scooby_state_403083|36|-26 1,0,0,0,0,0,0,0,0,0,0,0,0,0,0,1,
scooby_state_40307e|32|-30 1,0,0,0,0,0,0,0,0,0,0,0,0,0,0,1,
scooby_state_403083|6|-29 0,0,0,0,0,0,0,0,0,0,0,0,0,0,1,1,
scooby_state_403083|58|-1 1,0,0,0,0,0,0,0,0,0,0,0,0,0,0,1,

scooby_action_0_deg_dist 0,32284,0,0,0,0,0,0,0,0,0,0,0,0,0,0,
scooby_action_-6_deg_dist 0,359,0,0,0,0,0,0,0,0,0,0,0,0,0,0,
scooby_action_4_deg_dist 0,12456,717,0,162,0,25,0,0,0,0,0,0,0,0,0,
scooby_action_1_deg_dist 0,262254,212201,0,307534,0,76133,0,0,0,0,0,0,0,0,0,
scooby_action_30_deg_dist 0,421,7,0,10,0,13,0,0,0,0,0,0,0,0,0,
scooby_action_5_deg_dist 0,384,13,0,28,0,28,0,0,0,0,0,0,0,0,0,
scooby_action_3_deg_dist 0,437,14,0,21,0,30,0,0,0,0,0,0,0,0,0,
scooby_action_32_deg_dist 0,372,4,0,4,0,0,0,0,0,0,0,0,0,0,0,
scooby_action_10_deg_dist 0,491,7,0,17,0,21,0,0,0,0,0,0,0,0,0,
scooby_action_11_deg_dist 0,438,10,0,26,0,17,0,0,0,0,0,0,0,0,0,
scooby_action_12_deg_dist 0,420,11,0,24,0,22,0,0,0,0,0,0,0,0,0,
scooby_action_22_deg_dist 0,437,10,0,17,0,10,0,0,0,0,0,0,0,0,0,
scooby_action_23_deg_dist 0,420,8,0,18,0,20,0,0,0,0,0,0,0,0,0,
scooby_action_-1_deg_dist 0,78467,46231,0,115433,0,888794,0,0,0,0,0,0,0,0,0,
scooby_action_-3_deg_dist 0,117889,73829,0,182435,0,151950,0,0,0,0,0,0,0,0,0,

scooby_track_called 2563383
scooby_track_same_address 415211
scooby_track_evict 2147916

scooby_reward_demand_called 2563383
scooby_reward_demand_pt_not_found 1183056
scooby_reward_demand_pt_found 1380327
scooby_reward_demand_pt_found_total 1380327
scooby_reward_demand_has_reward 0
scooby_reward_train_called 710126
scooby_reward_assign_reward_called 2148073
scooby_reward_no_pref 32263
scooby_reward_incorrect 677863
scooby_reward_correct_untimely 759040
scooby_reward_correct_timely 621287
scooby_reward_out_of_bounds 57620
scooby_reward_tracker_hit 0

scooby_reward_none_low_bw 32263
scooby_reward_none_high_bw 0
scooby_reward_incorrect_low_bw 677863
scooby_reward_incorrect_high_bw 0
scooby_reward_correct_untimely_low_bw 759040
scooby_reward_correct_untimely_high_bw 0
scooby_reward_correct_timely_low_bw 621287
scooby_reward_correct_timely_high_bw 0
scooby_reward_out_of_bounds_low_bw 57620
scooby_reward_out_of_bounds_high_bw 0
scooby_reward_tracker_hit_low_bw 0
scooby_reward_tracker_hit_high_bw 0

scooby_reward_1 0,66356,69599,298291,13435,0,
scooby_reward_3 0,301,3,5,28,0,
scooby_reward_4 0,7582,2719,670,732,0,
scooby_reward_5 0,308,5,9,26,0,
scooby_reward_10 0,272,1,5,87,0,
scooby_reward_11 0,235,0,9,68,0,
scooby_reward_12 0,253,0,3,92,0,
scooby_reward_22 0,184,0,5,167,0,
scooby_reward_23 0,217,0,8,153,0,
scooby_reward_30 0,139,0,3,212,0,
scooby_reward_32 0,117,0,3,196,0,
scooby_reward_-1 0,349694,686020,74148,17700,0,
scooby_reward_-3 0,252039,693,247970,24695,0,
scooby_reward_-6 0,166,0,158,29,0,
scooby_reward_0 32263,0,0,0,0,0,

scooby_train_called 2147915
scooby_train_compute_reward 710126

scooby_register_fill_called 2897565
scooby_register_fill_set 759731
scooby_register_fill_set_total 759731

scooby_register_prefetch_hit_called 5274678
scooby_register_prefetch_hit_set 1377716
scooby_register_prefetch_hit_set_total 1377716

scooby_pref_issue_scooby 8234558

learning_engine_featurewise.action.called 2563383
learning_engine_featurewise.action.explore 4710
learning_engine_featurewise.action.exploit 2558673
learning_engine_featurewise.action.fallback 0
learning_engine_featurewise.action.dyn_fallback_saved_bw 0
learning_engine_featurewise.action.dyn_fallback_saved_bw_acc 0
learning_engine_featurewise.action.index_1_explored 307
learning_engine_featurewise.action.index_1_exploited 857815
learning_engine_featurewise.action.index_3_explored 326
learning_engine_featurewise.action.index_3_exploited 176
learning_engine_featurewise.action.index_4_explored 323
learning_engine_featurewise.action.index_4_exploited 13037
learning_engine_featurewise.action.index_5_explored 285
learning_engine_featurewise.action.index_5_exploited 168
learning_engine_featurewise.action.index_10_explored 355
learning_engine_featurewise.action.index_10_exploited 181
learning_engine_featurewise.action.index_11_explored 325
learning_engine_featurewise.action.index_11_exploited 166
learning_engine_featurewise.action.index_12_explored 313
learning_engine_featurewise.action.index_12_exploited 164
learning_engine_featurewise.action.index_22_explored 321
learning_engine_featurewise.action.index_22_exploited 153
learning_engine_featurewise.action.index_23_explored 312
learning_engine_featurewise.action.index_23_exploited 154
learning_engine_featurewise.action.index_30_explored 310
learning_engine_featurewise.action.index_30_exploited 141
learning_engine_featurewise.action.index_32_explored 271
learning_engine_featurewise.action.index_32_exploited 109
learning_engine_featurewise.action.index_-1_explored 319
learning_engine_featurewise.action.index_-1_exploited 1128606
learning_engine_featurewise.action.index_-3_explored 318
learning_engine_featurewise.action.index_-3_exploited 525785
learning_engine_featurewise.action.index_-6_explored 300
learning_engine_featurewise.action.index_-6_exploited 59
learning_engine_featurewise.action.index_0_explored 325
learning_engine_featurewise.action.index_0_exploited 31959
learning_engine_featurewise.learn.called 2147915
learning_engine_featurewise.learn.su_skip_PC 0
learning_engine_featurewise.learn.su_skip_PC_Delta 0

learning_engine_featurewise.q_value_histogram.bucket_0 0
learning_engine_featurewise.q_value_histogram.bucket_1 0
learning_engine_featurewise.q_value_histogram.bucket_2 0
learning_engine_featurewise.q_value_histogram.bucket_3 4140
learning_engine_featurewise.q_value_histogram.bucket_4 25046
learning_engine_featurewise.q_value_histogram.bucket_5 65724
learning_engine_featurewise.q_value_histogram.bucket_6 2463763
learning_engine_featurewise.q_value_histogram.bucket_7 0

learning_engine_featurewise.consensus.total 2558673
learning_engine_featurewise.consensus.feature_align_PC 2532334
learning_engine_featurewise.consensus.feature_align_PC_ratio 0.99
learning_engine_featurewise.consensus.feature_align_PC_Delta 2517634
learning_engine_featurewise.consensus.feature_align_PC_Delta_ratio 0.98
learning_engine_featurewise.consensus.feature_align_all 2491295
learning_engine_featurewise.consensus.feature_align_all_ratio 0.97

learning_engine_featurewise.feature_PC_min_weight 1000000.00000000
learning_engine_featurewise.feature_PC_max_weight 0.00000000
learning_engine_featurewise.feature_PC_Delta_min_weight 1000000.00000000
learning_engine_featurewise.feature_PC_Delta_max_weight 0.00000000
unique_pcs 74
unique_pages 10869
unique_trigger_pcs 38
total_bitmaps_seen 0
unique_bitmaps_seen 0

scooby_bw_epochs 2354884
scooby_bw_level_0 2354884
scooby_bw_level_1 0
scooby_bw_level_2 0
scooby_bw_level_3 0

scooby_ipc_epochs 0
scooby_ipc_level_0 0
scooby_ipc_level_1 0
scooby_ipc_level_2 0
scooby_ipc_level_3 0

scooby_cache_acc_epochs 587508
scooby_cache_acc_level_0 213816
scooby_cache_acc_level_1 41948
scooby_cache_acc_level_2 28384
scooby_cache_acc_level_3 22691
scooby_cache_acc_level_4 25480
scooby_cache_acc_level_5 103439
scooby_cache_acc_level_6 88039
scooby_cache_acc_level_7 34078
scooby_cache_acc_level_8 12316
scooby_cache_acc_level_9 17317

Channel_0_RQ_row_buffer_hit 2506784
Channel_0_RQ_row_buffer_miss 873346
Channel_0_WQ_row_buffer_hit 3672
Channel_0_WQ_row_buffer_miss 236781
Channel_0_WQ_full 0
Channel_0_dbus_congested 22

avg_congested_cycle 1

DRAM_bw_pochs 2354884
DRAM_bw_level_0 2354884
DRAM_bw_level_1 0
DRAM_bw_level_2 0
DRAM_bw_level_3 0
