*************************************************
   ChampSim Multicore Out-of-Order Simulator
   Last compiled: Dec  3 2023 14:43:31
*************************************************
parsing config file: /home/pcineverdies/Projects/RM4ES/Prefetcher-Research-Project/config/sp_ghb.ini

trace_0 /home/pcineverdies/Projects/RM4ES/Prefetcher-Research-Project/traces/649.fotonik3d_s-1B.champsimtrace.xz
adding L2C_PREFETCHER: SP GHB
Initialize SHIP state
warmup_instructions 100000
simulation_instructions 50000000
champsim_seed 115
measure_ipc 0
measure_ipc_epoch 1000
measure_dram_bw 1
measure_dram_bw_epoch 256
measure_cache_acc 1
measure_cache_acc_epoch 1024
l1d_perfect 0
l2c_perfect 0
llc_perfect 0
l1d_semi_perfect 0
l2c_semi_perfect 0
llc_semi_perfect 0
semi_perfect_cache_page_buffer_size 64

num_cpus 1
cpu_freq 550
dram_io_freq 2400
page_size 4096
block_size 64
max_read_per_cycle 8
max_fill_per_cycle 1
dram_channels 1
log2_dram_channels 0
dram_ranks 1
dram_banks 8
dram_rows 65536
dram_columns 128
dram_row_size 8
dram_size 4096
dram_pages 1048576

fetch_width 2
decode_width 2
exec_width 2
lq_width 1
sq_width 1
retire_width 5
scheduler_size 1
branch_mispredict_penalty 1
rob_size 256
lq_size 72
sq_size 56
num_instr_destinations_sparc 4
num_instr_destinations 2
num_instr_sources 4

itlb_set 1024
itlb_way 1024
itlb_rq_size 16
itlb_wq_size 16
itlb_pq_size 0
itlb_mshr_size 8
itlb_latency 0

dtlb_set 1024
dtlb_way 1024
dtlb_rq_size 32
dtlb_wq_size 32
dtlb_pq_size 0
dtlb_mshr_size 8
dtlb_latency 1

stlb_set 1024
stlb_way 1024
stlb_rq_size 32
stlb_wq_size 32
stlb_pq_size 0
stlb_mshr_size 16
stlb_latency 0

l1i_size 32
l1i_set 64
l1i_way 8
l1i_rq_size 64
l1i_wq_size 64
l1i_pq_size 32
l1i_mshr_size 8
l1i_latency 4

l1d_size 48
l1d_set 64
l1d_way 12
l1d_rq_size 64
l1d_wq_size 64
l1d_pq_size 8
l1d_mshr_size 16
l1d_latency 5

l2c_size 512
l2c_set 1024
l2c_way 8
l2c_rq_size 32
l2c_wq_size 32
l2c_pq_size 16
l2c_mshr_size 32
l2c_latency 10

llc_size 2048
llc_set 2048
llc_way 16
llc_rq_size 32
llc_wq_size 32
llc_pq_size 32
llc_mshr_size 64
llc_latency 20

dram_channel_width 8
dram_wq_size 64
dram_rq_size 64
tRP 15
tRCD 15
tCAS 12.5
dram_dbus_turn_around_time 4
dram_write_high_wm 56
dram_write_low_wm 48
min_dram_writes_per_switch 16
dram_mtps 2400
dram_dbus_return_time 1



Warmup complete CPU  0 instructions:     100001 cycles:     139100 (Simulation time: 0 hr 0 min 0 sec) 

Heartbeat CPU  0 instructions:    1000000 cycles:    8653596 heartbeat IPC: 0.11556 cumulative IPC: 0.10570 (Simulation time: 0 hr 0 min 3 sec) 
Heartbeat CPU  0 instructions:    2000000 cycles:   18113750 heartbeat IPC: 0.10571 cumulative IPC: 0.10570 (Simulation time: 0 hr 0 min 5 sec) 
Heartbeat CPU  0 instructions:    3000000 cycles:   27573538 heartbeat IPC: 0.10571 cumulative IPC: 0.10571 (Simulation time: 0 hr 0 min 7 sec) 
Heartbeat CPU  0 instructions:    4000000 cycles:   37032048 heartbeat IPC: 0.10572 cumulative IPC: 0.10571 (Simulation time: 0 hr 0 min 10 sec) 
Heartbeat CPU  0 instructions:    5000000 cycles:   46490858 heartbeat IPC: 0.10572 cumulative IPC: 0.10571 (Simulation time: 0 hr 0 min 12 sec) 
Heartbeat CPU  0 instructions:    6000000 cycles:   55949897 heartbeat IPC: 0.10572 cumulative IPC: 0.10571 (Simulation time: 0 hr 0 min 15 sec) 
Heartbeat CPU  0 instructions:    7000000 cycles:   65408430 heartbeat IPC: 0.10572 cumulative IPC: 0.10572 (Simulation time: 0 hr 0 min 17 sec) 
Heartbeat CPU  0 instructions:    8000000 cycles:   74867235 heartbeat IPC: 0.10572 cumulative IPC: 0.10572 (Simulation time: 0 hr 0 min 20 sec) 
Heartbeat CPU  0 instructions:    9000000 cycles:   84325849 heartbeat IPC: 0.10572 cumulative IPC: 0.10572 (Simulation time: 0 hr 0 min 22 sec) 
Heartbeat CPU  0 instructions:   10000000 cycles:   93784640 heartbeat IPC: 0.10572 cumulative IPC: 0.10572 (Simulation time: 0 hr 0 min 24 sec) 
Heartbeat CPU  0 instructions:   11000000 cycles:  103243293 heartbeat IPC: 0.10572 cumulative IPC: 0.10572 (Simulation time: 0 hr 0 min 27 sec) 
Heartbeat CPU  0 instructions:   12000000 cycles:  112701890 heartbeat IPC: 0.10572 cumulative IPC: 0.10572 (Simulation time: 0 hr 0 min 29 sec) 
Heartbeat CPU  0 instructions:   13000000 cycles:  122161041 heartbeat IPC: 0.10572 cumulative IPC: 0.10572 (Simulation time: 0 hr 0 min 32 sec) 
Heartbeat CPU  0 instructions:   14000000 cycles:  131619576 heartbeat IPC: 0.10572 cumulative IPC: 0.10572 (Simulation time: 0 hr 0 min 34 sec) 
Heartbeat CPU  0 instructions:   15000000 cycles:  141078105 heartbeat IPC: 0.10572 cumulative IPC: 0.10572 (Simulation time: 0 hr 0 min 37 sec) 
Heartbeat CPU  0 instructions:   16000000 cycles:  150536678 heartbeat IPC: 0.10572 cumulative IPC: 0.10572 (Simulation time: 0 hr 0 min 40 sec) 
Heartbeat CPU  0 instructions:   17000000 cycles:  159995304 heartbeat IPC: 0.10572 cumulative IPC: 0.10572 (Simulation time: 0 hr 0 min 42 sec) 
Heartbeat CPU  0 instructions:   18000000 cycles:  169453779 heartbeat IPC: 0.10573 cumulative IPC: 0.10572 (Simulation time: 0 hr 0 min 45 sec) 
Heartbeat CPU  0 instructions:   19000000 cycles:  178912654 heartbeat IPC: 0.10572 cumulative IPC: 0.10572 (Simulation time: 0 hr 0 min 48 sec) 
Heartbeat CPU  0 instructions:   20000000 cycles:  188371481 heartbeat IPC: 0.10572 cumulative IPC: 0.10572 (Simulation time: 0 hr 0 min 51 sec) 
Heartbeat CPU  0 instructions:   21000000 cycles:  197829982 heartbeat IPC: 0.10572 cumulative IPC: 0.10572 (Simulation time: 0 hr 0 min 54 sec) 
Heartbeat CPU  0 instructions:   22000000 cycles:  207288785 heartbeat IPC: 0.10572 cumulative IPC: 0.10572 (Simulation time: 0 hr 0 min 57 sec) 
Heartbeat CPU  0 instructions:   23000000 cycles:  216747549 heartbeat IPC: 0.10572 cumulative IPC: 0.10572 (Simulation time: 0 hr 1 min 0 sec) 
Heartbeat CPU  0 instructions:   24000000 cycles:  226205978 heartbeat IPC: 0.10573 cumulative IPC: 0.10572 (Simulation time: 0 hr 1 min 3 sec) 
Heartbeat CPU  0 instructions:   25000000 cycles:  235664924 heartbeat IPC: 0.10572 cumulative IPC: 0.10572 (Simulation time: 0 hr 1 min 6 sec) 
Heartbeat CPU  0 instructions:   26000000 cycles:  245123372 heartbeat IPC: 0.10573 cumulative IPC: 0.10572 (Simulation time: 0 hr 1 min 9 sec) 
Heartbeat CPU  0 instructions:   27000000 cycles:  254582815 heartbeat IPC: 0.10571 cumulative IPC: 0.10572 (Simulation time: 0 hr 1 min 12 sec) 
Heartbeat CPU  0 instructions:   28000000 cycles:  264041041 heartbeat IPC: 0.10573 cumulative IPC: 0.10572 (Simulation time: 0 hr 1 min 15 sec) 
Heartbeat CPU  0 instructions:   29000000 cycles:  273499827 heartbeat IPC: 0.10572 cumulative IPC: 0.10572 (Simulation time: 0 hr 1 min 18 sec) 
Heartbeat CPU  0 instructions:   30000000 cycles:  282958111 heartbeat IPC: 0.10573 cumulative IPC: 0.10572 (Simulation time: 0 hr 1 min 21 sec) 
Heartbeat CPU  0 instructions:   31000000 cycles:  292416845 heartbeat IPC: 0.10572 cumulative IPC: 0.10572 (Simulation time: 0 hr 1 min 24 sec) 
Heartbeat CPU  0 instructions:   32000000 cycles:  301875248 heartbeat IPC: 0.10573 cumulative IPC: 0.10572 (Simulation time: 0 hr 1 min 27 sec) 
Heartbeat CPU  0 instructions:   33000000 cycles:  311334365 heartbeat IPC: 0.10572 cumulative IPC: 0.10572 (Simulation time: 0 hr 1 min 30 sec) 
Heartbeat CPU  0 instructions:   34000000 cycles:  320792950 heartbeat IPC: 0.10572 cumulative IPC: 0.10572 (Simulation time: 0 hr 1 min 33 sec) 
Heartbeat CPU  0 instructions:   35000000 cycles:  330251724 heartbeat IPC: 0.10572 cumulative IPC: 0.10572 (Simulation time: 0 hr 1 min 36 sec) 
Heartbeat CPU  0 instructions:   36000000 cycles:  339710272 heartbeat IPC: 0.10572 cumulative IPC: 0.10572 (Simulation time: 0 hr 1 min 40 sec) 
Heartbeat CPU  0 instructions:   37000000 cycles:  349169036 heartbeat IPC: 0.10572 cumulative IPC: 0.10572 (Simulation time: 0 hr 1 min 43 sec) 
Heartbeat CPU  0 instructions:   38000000 cycles:  358627467 heartbeat IPC: 0.10573 cumulative IPC: 0.10572 (Simulation time: 0 hr 1 min 46 sec) 
Heartbeat CPU  0 instructions:   39000000 cycles:  368086569 heartbeat IPC: 0.10572 cumulative IPC: 0.10572 (Simulation time: 0 hr 1 min 49 sec) 
Heartbeat CPU  0 instructions:   40000000 cycles:  377544834 heartbeat IPC: 0.10573 cumulative IPC: 0.10572 (Simulation time: 0 hr 1 min 52 sec) 
Heartbeat CPU  0 instructions:   41000000 cycles:  387004229 heartbeat IPC: 0.10572 cumulative IPC: 0.10572 (Simulation time: 0 hr 1 min 54 sec) 
Heartbeat CPU  0 instructions:   42000000 cycles:  396462515 heartbeat IPC: 0.10573 cumulative IPC: 0.10572 (Simulation time: 0 hr 1 min 57 sec) 
Heartbeat CPU  0 instructions:   43000000 cycles:  405921358 heartbeat IPC: 0.10572 cumulative IPC: 0.10572 (Simulation time: 0 hr 2 min 0 sec) 
Heartbeat CPU  0 instructions:   44000000 cycles:  415379706 heartbeat IPC: 0.10573 cumulative IPC: 0.10572 (Simulation time: 0 hr 2 min 3 sec) 
Heartbeat CPU  0 instructions:   45000000 cycles:  424838459 heartbeat IPC: 0.10572 cumulative IPC: 0.10572 (Simulation time: 0 hr 2 min 5 sec) 
Heartbeat CPU  0 instructions:   46000000 cycles:  434296779 heartbeat IPC: 0.10573 cumulative IPC: 0.10572 (Simulation time: 0 hr 2 min 8 sec) 
Heartbeat CPU  0 instructions:   47000000 cycles:  443755793 heartbeat IPC: 0.10572 cumulative IPC: 0.10572 (Simulation time: 0 hr 2 min 10 sec) 
Heartbeat CPU  0 instructions:   48000000 cycles:  453214186 heartbeat IPC: 0.10573 cumulative IPC: 0.10572 (Simulation time: 0 hr 2 min 13 sec) 
Heartbeat CPU  0 instructions:   49000000 cycles:  462673260 heartbeat IPC: 0.10572 cumulative IPC: 0.10572 (Simulation time: 0 hr 2 min 16 sec) 
Heartbeat CPU  0 instructions:   50000000 cycles:  472131892 heartbeat IPC: 0.10572 cumulative IPC: 0.10572 (Simulation time: 0 hr 2 min 18 sec) 
Finished CPU 0 instructions: 50000000 cycles: 472938602 cumulative IPC: 0.10572 (Simulation time: 0 hr 2 min 19 sec) 

ChampSim completed all CPUs

[ROI Statistics]
Core_0_instructions 50000000
Core_0_cycles 472938602
Core_0_IPC 0.10572

Core_0_branch_prediction_accuracy 99.69526
Core_0_branch_MPKI 0.58520
Core_0_average_ROB_occupancy_at_mispredict 254.96090

Core_0_L1D_total_access 19146772
Core_0_L1D_total_hit 19143915
Core_0_L1D_total_miss 2857
Core_0_L1D_loads 10777678
Core_0_L1D_load_hit 10777554
Core_0_L1D_load_miss 124
Core_0_L1D_RFOs 8369094
Core_0_L1D_RFO_hit 8366361
Core_0_L1D_RFO_miss 2733
Core_0_L1D_prefetches 0
Core_0_L1D_prefetch_hit 0
Core_0_L1D_prefetch_miss 0
Core_0_L1D_writebacks 0
Core_0_L1D_writeback_hit 0
Core_0_L1D_writeback_miss 0
Core_0_L1D_prefetch_requested 0
Core_0_L1D_prefetch_dropped 0
Core_0_L1D_prefetch_issued 0
Core_0_L1D_prefetch_filled 0
Core_0_L1D_prefetch_useful 0
Core_0_L1D_prefetch_useless 0
Core_0_L1D_prefetch_late 0
Core_0_L1D_average_miss_latency 70.70039

Core_0_L1D_rq_access 10777678
Core_0_L1D_rq_forward 0
Core_0_L1D_rq_merged 0
Core_0_L1D_rq_to_cache 10777678
Core_0_L1D_rq_full 0

Core_0_L1D_wq_access 8369093
Core_0_L1D_wq_forward 0
Core_0_L1D_wq_merged 0
Core_0_L1D_wq_to_cache 8369093
Core_0_L1D_wq_full 0

Core_0_L1D_pq_access 0
Core_0_L1D_pq_forward 0
Core_0_L1D_pq_merged 0
Core_0_L1D_pq_to_cache 0
Core_0_L1D_pq_full 0

Core_0_L1D_acc_epochs 461970
Core_0_L1D_acc_level_0 461970
Core_0_L1D_acc_level_1 0
Core_0_L1D_acc_level_2 0
Core_0_L1D_acc_level_3 0
Core_0_L1D_acc_level_4 0
Core_0_L1D_acc_level_5 0
Core_0_L1D_acc_level_6 0
Core_0_L1D_acc_level_7 0
Core_0_L1D_acc_level_8 0
Core_0_L1D_acc_level_9 0

Core_0_L1I_total_access 43544888
Core_0_L1I_total_hit 43544884
Core_0_L1I_total_miss 4
Core_0_L1I_loads 43544888
Core_0_L1I_load_hit 43544884
Core_0_L1I_load_miss 4
Core_0_L1I_RFOs 0
Core_0_L1I_RFO_hit 0
Core_0_L1I_RFO_miss 0
Core_0_L1I_prefetches 0
Core_0_L1I_prefetch_hit 0
Core_0_L1I_prefetch_miss 0
Core_0_L1I_writebacks 0
Core_0_L1I_writeback_hit 0
Core_0_L1I_writeback_miss 0
Core_0_L1I_prefetch_requested 0
Core_0_L1I_prefetch_dropped 0
Core_0_L1I_prefetch_issued 0
Core_0_L1I_prefetch_filled 0
Core_0_L1I_prefetch_useful 0
Core_0_L1I_prefetch_useless 0
Core_0_L1I_prefetch_late 0
Core_0_L1I_average_miss_latency 86.00000

Core_0_L1I_rq_access 50000114
Core_0_L1I_rq_forward 0
Core_0_L1I_rq_merged 6455226
Core_0_L1I_rq_to_cache 43544888
Core_0_L1I_rq_full 0

Core_0_L1I_wq_access 0
Core_0_L1I_wq_forward 0
Core_0_L1I_wq_merged 0
Core_0_L1I_wq_to_cache 0
Core_0_L1I_wq_full 0

Core_0_L1I_pq_access 0
Core_0_L1I_pq_forward 0
Core_0_L1I_pq_merged 0
Core_0_L1I_pq_to_cache 0
Core_0_L1I_pq_full 0

Core_0_L1I_acc_epochs 461970
Core_0_L1I_acc_level_0 461970
Core_0_L1I_acc_level_1 0
Core_0_L1I_acc_level_2 0
Core_0_L1I_acc_level_3 0
Core_0_L1I_acc_level_4 0
Core_0_L1I_acc_level_5 0
Core_0_L1I_acc_level_6 0
Core_0_L1I_acc_level_7 0
Core_0_L1I_acc_level_8 0
Core_0_L1I_acc_level_9 0

Core_0_L2C_total_access 5133
Core_0_L2C_total_hit 2263
Core_0_L2C_total_miss 2870
Core_0_L2C_loads 128
Core_0_L2C_load_hit 91
Core_0_L2C_load_miss 37
Core_0_L2C_RFOs 2733
Core_0_L2C_RFO_hit 0
Core_0_L2C_RFO_miss 2733
Core_0_L2C_prefetches 101
Core_0_L2C_prefetch_hit 1
Core_0_L2C_prefetch_miss 100
Core_0_L2C_writebacks 2171
Core_0_L2C_writeback_hit 2171
Core_0_L2C_writeback_miss 0
Core_0_L2C_prefetch_requested 103
Core_0_L2C_prefetch_dropped 0
Core_0_L2C_prefetch_issued 103
Core_0_L2C_prefetch_filled 102
Core_0_L2C_prefetch_useful 92
Core_0_L2C_prefetch_useless 0
Core_0_L2C_prefetch_late 0
Core_0_L2C_average_miss_latency 57.64460

Core_0_L2C_rq_access 2861
Core_0_L2C_rq_forward 0
Core_0_L2C_rq_merged 0
Core_0_L2C_rq_to_cache 2861
Core_0_L2C_rq_full 0

Core_0_L2C_wq_access 2171
Core_0_L2C_wq_forward 0
Core_0_L2C_wq_merged 0
Core_0_L2C_wq_to_cache 2171
Core_0_L2C_wq_full 0

Core_0_L2C_pq_access 103
Core_0_L2C_pq_forward 0
Core_0_L2C_pq_merged 0
Core_0_L2C_pq_to_cache 103
Core_0_L2C_pq_full 0

Core_0_L2C_acc_epochs 461970
Core_0_L2C_acc_level_0 461764
Core_0_L2C_acc_level_1 68
Core_0_L2C_acc_level_2 64
Core_0_L2C_acc_level_3 4
Core_0_L2C_acc_level_4 0
Core_0_L2C_acc_level_5 65
Core_0_L2C_acc_level_6 0
Core_0_L2C_acc_level_7 4
Core_0_L2C_acc_level_8 0
Core_0_L2C_acc_level_9 1

Core_0_LLC_total_access 2870
Core_0_LLC_total_hit 0
Core_0_LLC_total_miss 2870
Core_0_LLC_loads 37
Core_0_LLC_load_hit 0
Core_0_LLC_load_miss 37
Core_0_LLC_RFOs 2733
Core_0_LLC_RFO_hit 0
Core_0_LLC_RFO_miss 2733
Core_0_LLC_prefetches 100
Core_0_LLC_prefetch_hit 0
Core_0_LLC_prefetch_miss 100
Core_0_LLC_writebacks 0
Core_0_LLC_writeback_hit 0
Core_0_LLC_writeback_miss 0
Core_0_LLC_prefetch_requested 0
Core_0_LLC_prefetch_dropped 0
Core_0_LLC_prefetch_issued 0
Core_0_LLC_prefetch_filled 102
Core_0_LLC_prefetch_useful 0
Core_0_LLC_prefetch_useless 0
Core_0_LLC_prefetch_late 0
Core_0_LLC_average_miss_latency 27.64460

Core_0_LLC_rq_access 2770
Core_0_LLC_rq_forward 0
Core_0_LLC_rq_merged 0
Core_0_LLC_rq_to_cache 2770
Core_0_LLC_rq_full 0

Core_0_LLC_wq_access 0
Core_0_LLC_wq_forward 0
Core_0_LLC_wq_merged 0
Core_0_LLC_wq_to_cache 0
Core_0_LLC_wq_full 0

Core_0_LLC_pq_access 102
Core_0_LLC_pq_forward 0
Core_0_LLC_pq_merged 0
Core_0_LLC_pq_to_cache 102
Core_0_LLC_pq_full 0

Core_0_LLC_acc_epochs 461990
Core_0_LLC_acc_level_0 461990
Core_0_LLC_acc_level_1 0
Core_0_LLC_acc_level_2 0
Core_0_LLC_acc_level_3 0
Core_0_LLC_acc_level_4 0
Core_0_LLC_acc_level_5 0
Core_0_LLC_acc_level_6 0
Core_0_LLC_acc_level_7 0
Core_0_LLC_acc_level_8 0
Core_0_LLC_acc_level_9 0

Core_0_major_page_fault 0
Core_0_minor_page_fault 261

-------- Custom final stats --------
Total number of elements ever stored in prediction table :367
Channel_0_RQ_row_buffer_hit 2575
Channel_0_RQ_row_buffer_miss 295
Channel_0_WQ_row_buffer_hit 0
Channel_0_WQ_row_buffer_miss 0
Channel_0_WQ_full 0
Channel_0_dbus_congested 0

avg_congested_cycle 0

DRAM_bw_pochs 1847960
DRAM_bw_level_0 1847960
DRAM_bw_level_1 0
DRAM_bw_level_2 0
DRAM_bw_level_3 0
