*************************************************
   ChampSim Multicore Out-of-Order Simulator
   Last compiled: Dec  3 2023 14:43:31
*************************************************
parsing config file: /home/pcineverdies/Projects/RM4ES/Prefetcher-Research-Project/config/pythia.ini

trace_0 /home/pcineverdies/Projects/RM4ES/Prefetcher-Research-Project/traces/649.fotonik3d_s-1B.champsimtrace.xz
adding L2C_PREFETCHER: Scooby
Initialize SHIP state
warmup_instructions 100000
simulation_instructions 50000000
champsim_seed 115
measure_ipc 0
measure_ipc_epoch 1000
measure_dram_bw 1
measure_dram_bw_epoch 256
measure_cache_acc 1
measure_cache_acc_epoch 1024
l1d_perfect 0
l2c_perfect 0
llc_perfect 0
l1d_semi_perfect 0
l2c_semi_perfect 0
llc_semi_perfect 0
semi_perfect_cache_page_buffer_size 64

num_cpus 1
cpu_freq 550
dram_io_freq 2400
page_size 4096
block_size 64
max_read_per_cycle 8
max_fill_per_cycle 1
dram_channels 1
log2_dram_channels 0
dram_ranks 1
dram_banks 8
dram_rows 65536
dram_columns 128
dram_row_size 8
dram_size 4096
dram_pages 1048576

fetch_width 2
decode_width 2
exec_width 2
lq_width 1
sq_width 1
retire_width 5
scheduler_size 1
branch_mispredict_penalty 1
rob_size 256
lq_size 72
sq_size 56
num_instr_destinations_sparc 4
num_instr_destinations 2
num_instr_sources 4

itlb_set 1024
itlb_way 1024
itlb_rq_size 16
itlb_wq_size 16
itlb_pq_size 0
itlb_mshr_size 8
itlb_latency 0

dtlb_set 1024
dtlb_way 1024
dtlb_rq_size 32
dtlb_wq_size 32
dtlb_pq_size 0
dtlb_mshr_size 8
dtlb_latency 1

stlb_set 1024
stlb_way 1024
stlb_rq_size 32
stlb_wq_size 32
stlb_pq_size 0
stlb_mshr_size 16
stlb_latency 0

l1i_size 32
l1i_set 64
l1i_way 8
l1i_rq_size 64
l1i_wq_size 64
l1i_pq_size 32
l1i_mshr_size 8
l1i_latency 4

l1d_size 48
l1d_set 64
l1d_way 12
l1d_rq_size 64
l1d_wq_size 64
l1d_pq_size 8
l1d_mshr_size 16
l1d_latency 5

l2c_size 512
l2c_set 1024
l2c_way 8
l2c_rq_size 32
l2c_wq_size 32
l2c_pq_size 16
l2c_mshr_size 32
l2c_latency 10

llc_size 2048
llc_set 2048
llc_way 16
llc_rq_size 32
llc_wq_size 32
llc_pq_size 32
llc_mshr_size 64
llc_latency 20

dram_channel_width 8
dram_wq_size 64
dram_rq_size 64
tRP 15
tRCD 15
tCAS 12.5
dram_dbus_turn_around_time 4
dram_write_high_wm 56
dram_write_low_wm 48
min_dram_writes_per_switch 16
dram_mtps 2400
dram_dbus_return_time 1

scooby_alpha 0.0065088
scooby_gamma 0.556301
scooby_epsilon 0.00182284
scooby_state_num_bits 10
scooby_max_states 1024
scooby_seed 200
scooby_policy EGreedy
scooby_learning_type SARSA
scooby_actions 1,3,4,5,10,11,12,22,23,30,32,-1,-3,-6,0,
scooby_max_actions 15
scooby_pt_size 256
scooby_st_size 64
scooby_max_pcs 5
scooby_max_offsets 5
scooby_max_deltas 5
scooby_reward_none -4
scooby_reward_incorrect -8
scooby_reward_correct_untimely 12
scooby_reward_correct_timely 20
scooby_brain_zero_init 0
scooby_enable_reward_all 0
scooby_enable_track_multiple 0
scooby_enable_reward_out_of_bounds 1
scooby_reward_out_of_bounds -12
scooby_state_type 1
scooby_state_hash_type 11
scooby_access_debug 0
scooby_print_access_debug 0
scooby_print_access_debug_pc deadbeef
scooby_print_access_debug_pc_count 0
scooby_print_trace 0
scooby_enable_state_action_stats 1
scooby_enable_reward_tracker_hit 0
scooby_reward_tracker_hit -2
scooby_enable_featurewise_engine 1
scooby_pref_degree 1
scooby_enable_dyn_degree 1
scooby_max_to_avg_q_thresholds 0.5,1,2,
scooby_dyn_degrees 1,2,4,4,
scooby_multi_deg_select_type 2
scooby_last_pref_offset_conf_thresholds 1,3,8,
scooby_dyn_degrees_type2 1,2,4,6,
scooby_action_tracker_size 2
scooby_high_bw_thresh 4
scooby_enable_hbw_reward 1
scooby_reward_hbw_correct_timely 20
scooby_reward_hbw_correct_untimely 12
scooby_reward_hbw_incorrect -14
scooby_reward_hbw_none -2
scooby_reward_hbw_out_of_bounds -12
scooby_reward_hbw_tracker_hit -2
scooby_last_pref_offset_conf_thresholds_hbw 1,3,8,
scooby_dyn_degrees_type2_hbw 1,2,4,6,

le_enable_trace 0
le_trace_interval 0
le_trace_file_name 
le_trace_state 0
le_enable_score_plot 0
le_plot_file_name 
le_plot_actions 
le_enable_action_trace 0
le_action_trace_interval 0
le_action_trace_name 
le_enable_action_plot 0

le_featurewise_active_features PC, PC_Delta
le_featurewise_num_tilings 3,3,
le_featurewise_num_tiles 128,128,
le_featurewise_hash_types 2,2,
le_featurewise_enable_tiling_offset 1,1,
le_featurewise_max_q_thresh 0.5
le_featurewise_enable_action_fallback 1
le_featurewise_feature_weights 1,1,
le_featurewise_enable_dynamic_weight 0
le_featurewise_weight_gradient 0.001
le_featurewise_disable_adjust_weight_all_features_align 1
le_featurewise_selective_update 0
le_featurewise_pooling_type 2
le_featurewise_enable_dyn_action_fallback 1
le_featurewise_bw_acc_check_level 1
le_featurewise_acc_thresh 2
le_featurewise_enable_trace 0
le_featurewise_trace_feature_type 0
le_featurewise_trace_feature 
le_featurewise_trace_interval 0
le_featurewise_trace_record_count 0
le_featurewise_trace_file_name 
le_featurewise_enable_score_plot 0
le_featurewise_plot_actions 
le_featurewise_plot_file_name 



Warmup complete CPU  0 instructions:     100001 cycles:     139013 (Simulation time: 0 hr 0 min 0 sec) 

Heartbeat CPU  0 instructions:    1000000 cycles:    8652567 heartbeat IPC: 0.11557 cumulative IPC: 0.10571 (Simulation time: 0 hr 0 min 2 sec) 
Heartbeat CPU  0 instructions:    2000000 cycles:   18111775 heartbeat IPC: 0.10572 cumulative IPC: 0.10572 (Simulation time: 0 hr 0 min 5 sec) 
Heartbeat CPU  0 instructions:    3000000 cycles:   27571274 heartbeat IPC: 0.10571 cumulative IPC: 0.10571 (Simulation time: 0 hr 0 min 7 sec) 
Heartbeat CPU  0 instructions:    4000000 cycles:   37029788 heartbeat IPC: 0.10572 cumulative IPC: 0.10572 (Simulation time: 0 hr 0 min 9 sec) 
Heartbeat CPU  0 instructions:    5000000 cycles:   46488598 heartbeat IPC: 0.10572 cumulative IPC: 0.10572 (Simulation time: 0 hr 0 min 12 sec) 
Heartbeat CPU  0 instructions:    6000000 cycles:   55947637 heartbeat IPC: 0.10572 cumulative IPC: 0.10572 (Simulation time: 0 hr 0 min 14 sec) 
Heartbeat CPU  0 instructions:    7000000 cycles:   65406170 heartbeat IPC: 0.10572 cumulative IPC: 0.10572 (Simulation time: 0 hr 0 min 17 sec) 
Heartbeat CPU  0 instructions:    8000000 cycles:   74864975 heartbeat IPC: 0.10572 cumulative IPC: 0.10572 (Simulation time: 0 hr 0 min 19 sec) 
Heartbeat CPU  0 instructions:    9000000 cycles:   84323589 heartbeat IPC: 0.10572 cumulative IPC: 0.10572 (Simulation time: 0 hr 0 min 22 sec) 
Heartbeat CPU  0 instructions:   10000000 cycles:   93782380 heartbeat IPC: 0.10572 cumulative IPC: 0.10572 (Simulation time: 0 hr 0 min 25 sec) 
Heartbeat CPU  0 instructions:   11000000 cycles:  103241033 heartbeat IPC: 0.10572 cumulative IPC: 0.10572 (Simulation time: 0 hr 0 min 27 sec) 
Heartbeat CPU  0 instructions:   12000000 cycles:  112699630 heartbeat IPC: 0.10572 cumulative IPC: 0.10572 (Simulation time: 0 hr 0 min 30 sec) 
Heartbeat CPU  0 instructions:   13000000 cycles:  122158781 heartbeat IPC: 0.10572 cumulative IPC: 0.10572 (Simulation time: 0 hr 0 min 32 sec) 
Heartbeat CPU  0 instructions:   14000000 cycles:  131617316 heartbeat IPC: 0.10572 cumulative IPC: 0.10572 (Simulation time: 0 hr 0 min 35 sec) 
Heartbeat CPU  0 instructions:   15000000 cycles:  141075845 heartbeat IPC: 0.10572 cumulative IPC: 0.10572 (Simulation time: 0 hr 0 min 38 sec) 
Heartbeat CPU  0 instructions:   16000000 cycles:  150534418 heartbeat IPC: 0.10572 cumulative IPC: 0.10572 (Simulation time: 0 hr 0 min 41 sec) 
Heartbeat CPU  0 instructions:   17000000 cycles:  159993044 heartbeat IPC: 0.10572 cumulative IPC: 0.10572 (Simulation time: 0 hr 0 min 44 sec) 
Heartbeat CPU  0 instructions:   18000000 cycles:  169451519 heartbeat IPC: 0.10573 cumulative IPC: 0.10572 (Simulation time: 0 hr 0 min 48 sec) 
Heartbeat CPU  0 instructions:   19000000 cycles:  178910394 heartbeat IPC: 0.10572 cumulative IPC: 0.10572 (Simulation time: 0 hr 0 min 51 sec) 
Heartbeat CPU  0 instructions:   20000000 cycles:  188369221 heartbeat IPC: 0.10572 cumulative IPC: 0.10572 (Simulation time: 0 hr 0 min 55 sec) 
Heartbeat CPU  0 instructions:   21000000 cycles:  197827722 heartbeat IPC: 0.10572 cumulative IPC: 0.10572 (Simulation time: 0 hr 0 min 58 sec) 
Heartbeat CPU  0 instructions:   22000000 cycles:  207286525 heartbeat IPC: 0.10572 cumulative IPC: 0.10572 (Simulation time: 0 hr 1 min 2 sec) 
Heartbeat CPU  0 instructions:   23000000 cycles:  216745289 heartbeat IPC: 0.10572 cumulative IPC: 0.10572 (Simulation time: 0 hr 1 min 6 sec) 
Heartbeat CPU  0 instructions:   24000000 cycles:  226203718 heartbeat IPC: 0.10573 cumulative IPC: 0.10572 (Simulation time: 0 hr 1 min 9 sec) 
Heartbeat CPU  0 instructions:   25000000 cycles:  235662664 heartbeat IPC: 0.10572 cumulative IPC: 0.10572 (Simulation time: 0 hr 1 min 13 sec) 
Heartbeat CPU  0 instructions:   26000000 cycles:  245121112 heartbeat IPC: 0.10573 cumulative IPC: 0.10572 (Simulation time: 0 hr 1 min 17 sec) 
Heartbeat CPU  0 instructions:   27000000 cycles:  254580555 heartbeat IPC: 0.10571 cumulative IPC: 0.10572 (Simulation time: 0 hr 1 min 21 sec) 
Heartbeat CPU  0 instructions:   28000000 cycles:  264038781 heartbeat IPC: 0.10573 cumulative IPC: 0.10572 (Simulation time: 0 hr 1 min 24 sec) 
Heartbeat CPU  0 instructions:   29000000 cycles:  273497567 heartbeat IPC: 0.10572 cumulative IPC: 0.10572 (Simulation time: 0 hr 1 min 28 sec) 
Heartbeat CPU  0 instructions:   30000000 cycles:  282955851 heartbeat IPC: 0.10573 cumulative IPC: 0.10572 (Simulation time: 0 hr 1 min 31 sec) 
Heartbeat CPU  0 instructions:   31000000 cycles:  292414585 heartbeat IPC: 0.10572 cumulative IPC: 0.10572 (Simulation time: 0 hr 1 min 34 sec) 
Heartbeat CPU  0 instructions:   32000000 cycles:  301872988 heartbeat IPC: 0.10573 cumulative IPC: 0.10572 (Simulation time: 0 hr 1 min 37 sec) 
Heartbeat CPU  0 instructions:   33000000 cycles:  311332105 heartbeat IPC: 0.10572 cumulative IPC: 0.10572 (Simulation time: 0 hr 1 min 41 sec) 
Heartbeat CPU  0 instructions:   34000000 cycles:  320790690 heartbeat IPC: 0.10572 cumulative IPC: 0.10572 (Simulation time: 0 hr 1 min 44 sec) 
Heartbeat CPU  0 instructions:   35000000 cycles:  330249464 heartbeat IPC: 0.10572 cumulative IPC: 0.10572 (Simulation time: 0 hr 1 min 48 sec) 
Heartbeat CPU  0 instructions:   36000000 cycles:  339708012 heartbeat IPC: 0.10572 cumulative IPC: 0.10572 (Simulation time: 0 hr 1 min 51 sec) 
Heartbeat CPU  0 instructions:   37000000 cycles:  349166776 heartbeat IPC: 0.10572 cumulative IPC: 0.10572 (Simulation time: 0 hr 1 min 55 sec) 
Heartbeat CPU  0 instructions:   38000000 cycles:  358625207 heartbeat IPC: 0.10573 cumulative IPC: 0.10572 (Simulation time: 0 hr 1 min 59 sec) 
Heartbeat CPU  0 instructions:   39000000 cycles:  368084309 heartbeat IPC: 0.10572 cumulative IPC: 0.10572 (Simulation time: 0 hr 2 min 2 sec) 
Heartbeat CPU  0 instructions:   40000000 cycles:  377542574 heartbeat IPC: 0.10573 cumulative IPC: 0.10572 (Simulation time: 0 hr 2 min 5 sec) 
Heartbeat CPU  0 instructions:   41000000 cycles:  387001969 heartbeat IPC: 0.10572 cumulative IPC: 0.10572 (Simulation time: 0 hr 2 min 9 sec) 
Heartbeat CPU  0 instructions:   42000000 cycles:  396460255 heartbeat IPC: 0.10573 cumulative IPC: 0.10572 (Simulation time: 0 hr 2 min 12 sec) 
Heartbeat CPU  0 instructions:   43000000 cycles:  405919098 heartbeat IPC: 0.10572 cumulative IPC: 0.10572 (Simulation time: 0 hr 2 min 15 sec) 
Heartbeat CPU  0 instructions:   44000000 cycles:  415377446 heartbeat IPC: 0.10573 cumulative IPC: 0.10572 (Simulation time: 0 hr 2 min 18 sec) 
Heartbeat CPU  0 instructions:   45000000 cycles:  424836199 heartbeat IPC: 0.10572 cumulative IPC: 0.10572 (Simulation time: 0 hr 2 min 21 sec) 
Heartbeat CPU  0 instructions:   46000000 cycles:  434294519 heartbeat IPC: 0.10573 cumulative IPC: 0.10572 (Simulation time: 0 hr 2 min 24 sec) 
Heartbeat CPU  0 instructions:   47000000 cycles:  443753533 heartbeat IPC: 0.10572 cumulative IPC: 0.10572 (Simulation time: 0 hr 2 min 27 sec) 
Heartbeat CPU  0 instructions:   48000000 cycles:  453211926 heartbeat IPC: 0.10573 cumulative IPC: 0.10572 (Simulation time: 0 hr 2 min 30 sec) 
Heartbeat CPU  0 instructions:   49000000 cycles:  462671000 heartbeat IPC: 0.10572 cumulative IPC: 0.10572 (Simulation time: 0 hr 2 min 33 sec) 
Heartbeat CPU  0 instructions:   50000000 cycles:  472129632 heartbeat IPC: 0.10572 cumulative IPC: 0.10572 (Simulation time: 0 hr 2 min 35 sec) 
Finished CPU 0 instructions: 50000000 cycles: 472936429 cumulative IPC: 0.10572 (Simulation time: 0 hr 2 min 36 sec) 

ChampSim completed all CPUs

[ROI Statistics]
Core_0_instructions 50000000
Core_0_cycles 472936429
Core_0_IPC 0.10572

Core_0_branch_prediction_accuracy 99.69526
Core_0_branch_MPKI 0.58520
Core_0_average_ROB_occupancy_at_mispredict 254.96090

Core_0_L1D_total_access 19146772
Core_0_L1D_total_hit 19143915
Core_0_L1D_total_miss 2857
Core_0_L1D_loads 10777678
Core_0_L1D_load_hit 10777554
Core_0_L1D_load_miss 124
Core_0_L1D_RFOs 8369094
Core_0_L1D_RFO_hit 8366361
Core_0_L1D_RFO_miss 2733
Core_0_L1D_prefetches 0
Core_0_L1D_prefetch_hit 0
Core_0_L1D_prefetch_miss 0
Core_0_L1D_writebacks 0
Core_0_L1D_writeback_hit 0
Core_0_L1D_writeback_miss 0
Core_0_L1D_prefetch_requested 0
Core_0_L1D_prefetch_dropped 0
Core_0_L1D_prefetch_issued 0
Core_0_L1D_prefetch_filled 0
Core_0_L1D_prefetch_useful 0
Core_0_L1D_prefetch_useless 0
Core_0_L1D_prefetch_late 0
Core_0_L1D_average_miss_latency 69.97235

Core_0_L1D_rq_access 10777678
Core_0_L1D_rq_forward 0
Core_0_L1D_rq_merged 0
Core_0_L1D_rq_to_cache 10777678
Core_0_L1D_rq_full 0

Core_0_L1D_wq_access 8369093
Core_0_L1D_wq_forward 0
Core_0_L1D_wq_merged 0
Core_0_L1D_wq_to_cache 8369093
Core_0_L1D_wq_full 0

Core_0_L1D_pq_access 0
Core_0_L1D_pq_forward 0
Core_0_L1D_pq_merged 0
Core_0_L1D_pq_to_cache 0
Core_0_L1D_pq_full 0

Core_0_L1D_acc_epochs 461968
Core_0_L1D_acc_level_0 461968
Core_0_L1D_acc_level_1 0
Core_0_L1D_acc_level_2 0
Core_0_L1D_acc_level_3 0
Core_0_L1D_acc_level_4 0
Core_0_L1D_acc_level_5 0
Core_0_L1D_acc_level_6 0
Core_0_L1D_acc_level_7 0
Core_0_L1D_acc_level_8 0
Core_0_L1D_acc_level_9 0

Core_0_L1I_total_access 43544888
Core_0_L1I_total_hit 43544884
Core_0_L1I_total_miss 4
Core_0_L1I_loads 43544888
Core_0_L1I_load_hit 43544884
Core_0_L1I_load_miss 4
Core_0_L1I_RFOs 0
Core_0_L1I_RFO_hit 0
Core_0_L1I_RFO_miss 0
Core_0_L1I_prefetches 0
Core_0_L1I_prefetch_hit 0
Core_0_L1I_prefetch_miss 0
Core_0_L1I_writebacks 0
Core_0_L1I_writeback_hit 0
Core_0_L1I_writeback_miss 0
Core_0_L1I_prefetch_requested 0
Core_0_L1I_prefetch_dropped 0
Core_0_L1I_prefetch_issued 0
Core_0_L1I_prefetch_filled 0
Core_0_L1I_prefetch_useful 0
Core_0_L1I_prefetch_useless 0
Core_0_L1I_prefetch_late 0
Core_0_L1I_average_miss_latency 50.00000

Core_0_L1I_rq_access 50000114
Core_0_L1I_rq_forward 0
Core_0_L1I_rq_merged 6455226
Core_0_L1I_rq_to_cache 43544888
Core_0_L1I_rq_full 0

Core_0_L1I_wq_access 0
Core_0_L1I_wq_forward 0
Core_0_L1I_wq_merged 0
Core_0_L1I_wq_to_cache 0
Core_0_L1I_wq_full 0

Core_0_L1I_pq_access 0
Core_0_L1I_pq_forward 0
Core_0_L1I_pq_merged 0
Core_0_L1I_pq_to_cache 0
Core_0_L1I_pq_full 0

Core_0_L1I_acc_epochs 461968
Core_0_L1I_acc_level_0 461968
Core_0_L1I_acc_level_1 0
Core_0_L1I_acc_level_2 0
Core_0_L1I_acc_level_3 0
Core_0_L1I_acc_level_4 0
Core_0_L1I_acc_level_5 0
Core_0_L1I_acc_level_6 0
Core_0_L1I_acc_level_7 0
Core_0_L1I_acc_level_8 0
Core_0_L1I_acc_level_9 0

Core_0_L2C_total_access 5698
Core_0_L2C_total_hit 2837
Core_0_L2C_total_miss 2861
Core_0_L2C_loads 128
Core_0_L2C_load_hit 123
Core_0_L2C_load_miss 5
Core_0_L2C_RFOs 2733
Core_0_L2C_RFO_hit 0
Core_0_L2C_RFO_miss 2733
Core_0_L2C_prefetches 666
Core_0_L2C_prefetch_hit 543
Core_0_L2C_prefetch_miss 123
Core_0_L2C_writebacks 2171
Core_0_L2C_writeback_hit 2171
Core_0_L2C_writeback_miss 0
Core_0_L2C_prefetch_requested 1273
Core_0_L2C_prefetch_dropped 1
Core_0_L2C_prefetch_issued 1272
Core_0_L2C_prefetch_filled 432
Core_0_L2C_prefetch_useful 234
Core_0_L2C_prefetch_useless 0
Core_0_L2C_prefetch_late 6
Core_0_L2C_average_miss_latency 57.62181

Core_0_L2C_rq_access 2861
Core_0_L2C_rq_forward 0
Core_0_L2C_rq_merged 0
Core_0_L2C_rq_to_cache 2861
Core_0_L2C_rq_full 0

Core_0_L2C_wq_access 2171
Core_0_L2C_wq_forward 0
Core_0_L2C_wq_merged 0
Core_0_L2C_wq_to_cache 2171
Core_0_L2C_wq_full 0

Core_0_L2C_pq_access 1272
Core_0_L2C_pq_forward 0
Core_0_L2C_pq_merged 47
Core_0_L2C_pq_to_cache 1225
Core_0_L2C_pq_full 0

Core_0_L2C_acc_epochs 461968
Core_0_L2C_acc_level_0 461704
Core_0_L2C_acc_level_1 88
Core_0_L2C_acc_level_2 80
Core_0_L2C_acc_level_3 7
Core_0_L2C_acc_level_4 1
Core_0_L2C_acc_level_5 78
Core_0_L2C_acc_level_6 2
Core_0_L2C_acc_level_7 5
Core_0_L2C_acc_level_8 0
Core_0_L2C_acc_level_9 3

Core_0_LLC_total_access 2861
Core_0_LLC_total_hit 0
Core_0_LLC_total_miss 2861
Core_0_LLC_loads 5
Core_0_LLC_load_hit 0
Core_0_LLC_load_miss 5
Core_0_LLC_RFOs 2733
Core_0_LLC_RFO_hit 0
Core_0_LLC_RFO_miss 2733
Core_0_LLC_prefetches 123
Core_0_LLC_prefetch_hit 0
Core_0_LLC_prefetch_miss 123
Core_0_LLC_writebacks 0
Core_0_LLC_writeback_hit 0
Core_0_LLC_writeback_miss 0
Core_0_LLC_prefetch_requested 0
Core_0_LLC_prefetch_dropped 0
Core_0_LLC_prefetch_issued 0
Core_0_LLC_prefetch_filled 438
Core_0_LLC_prefetch_useful 0
Core_0_LLC_prefetch_useless 0
Core_0_LLC_prefetch_late 0
Core_0_LLC_average_miss_latency 27.62181

Core_0_LLC_rq_access 2738
Core_0_LLC_rq_forward 0
Core_0_LLC_rq_merged 0
Core_0_LLC_rq_to_cache 2738
Core_0_LLC_rq_full 0

Core_0_LLC_wq_access 0
Core_0_LLC_wq_forward 0
Core_0_LLC_wq_merged 0
Core_0_LLC_wq_to_cache 0
Core_0_LLC_wq_full 0

Core_0_LLC_pq_access 438
Core_0_LLC_pq_forward 0
Core_0_LLC_pq_merged 0
Core_0_LLC_pq_to_cache 438
Core_0_LLC_pq_full 0

Core_0_LLC_acc_epochs 461988
Core_0_LLC_acc_level_0 461988
Core_0_LLC_acc_level_1 0
Core_0_LLC_acc_level_2 0
Core_0_LLC_acc_level_3 0
Core_0_LLC_acc_level_4 0
Core_0_LLC_acc_level_5 0
Core_0_LLC_acc_level_6 0
Core_0_LLC_acc_level_7 0
Core_0_LLC_acc_level_8 0
Core_0_LLC_acc_level_9 0

Core_0_major_page_fault 0
Core_0_minor_page_fault 261

scooby_st_lookup 367
scooby_st_hit 322
scooby_st_evict 0
scooby_st_insert 45
scooby_st_streaming 0

scooby_predict_called 367
scooby_predict_out_of_bounds 4
scooby_predict_action_1 363
scooby_predict_issue_action_1 363
scooby_predict_hit_action_1 0
scooby_predict_out_of_bounds_action_1 4
scooby_predict_action_3 0
scooby_predict_issue_action_3 0
scooby_predict_hit_action_3 0
scooby_predict_out_of_bounds_action_3 0
scooby_predict_action_4 0
scooby_predict_issue_action_4 0
scooby_predict_hit_action_4 0
scooby_predict_out_of_bounds_action_4 0
scooby_predict_action_5 0
scooby_predict_issue_action_5 0
scooby_predict_hit_action_5 0
scooby_predict_out_of_bounds_action_5 0
scooby_predict_action_10 0
scooby_predict_issue_action_10 0
scooby_predict_hit_action_10 0
scooby_predict_out_of_bounds_action_10 0
scooby_predict_action_11 0
scooby_predict_issue_action_11 0
scooby_predict_hit_action_11 0
scooby_predict_out_of_bounds_action_11 0
scooby_predict_action_12 0
scooby_predict_issue_action_12 0
scooby_predict_hit_action_12 0
scooby_predict_out_of_bounds_action_12 0
scooby_predict_action_22 0
scooby_predict_issue_action_22 0
scooby_predict_hit_action_22 0
scooby_predict_out_of_bounds_action_22 0
scooby_predict_action_23 0
scooby_predict_issue_action_23 0
scooby_predict_hit_action_23 0
scooby_predict_out_of_bounds_action_23 0
scooby_predict_action_30 0
scooby_predict_issue_action_30 0
scooby_predict_hit_action_30 0
scooby_predict_out_of_bounds_action_30 0
scooby_predict_action_32 0
scooby_predict_issue_action_32 0
scooby_predict_hit_action_32 0
scooby_predict_out_of_bounds_action_32 0
scooby_predict_action_-1 0
scooby_predict_issue_action_-1 0
scooby_predict_hit_action_-1 0
scooby_predict_out_of_bounds_action_-1 0
scooby_predict_action_-3 0
scooby_predict_issue_action_-3 0
scooby_predict_hit_action_-3 0
scooby_predict_out_of_bounds_action_-3 0
scooby_predict_action_-6 0
scooby_predict_issue_action_-6 0
scooby_predict_hit_action_-6 0
scooby_predict_out_of_bounds_action_-6 0
scooby_predict_action_0 0
scooby_predict_issue_action_0 0
scooby_predict_hit_action_0 0
scooby_predict_out_of_bounds_action_0 0
scooby_predict_multi_deg_called 252
scooby_predict_predicted 1273
scooby_predict_multi_deg 910
scooby_predict_multi_deg_2 247
scooby_predict_multi_deg_3 201
scooby_predict_multi_deg_4 196
scooby_predict_multi_deg_5 134
scooby_predict_multi_deg_6 132
scooby_predict_multi_deg_7 0
scooby_predict_multi_deg_8 0
scooby_predict_multi_deg_9 0
scooby_predict_multi_deg_10 0
scooby_predict_multi_deg_11 0
scooby_predict_multi_deg_12 0
scooby_predict_multi_deg_13 0
scooby_predict_multi_deg_14 0
scooby_predict_multi_deg_15 0
scooby_predict_multi_deg_16 0

scooby_selected_deg_1 111
scooby_selected_deg_2 43
scooby_selected_deg_3 0
scooby_selected_deg_4 67
scooby_selected_deg_5 0
scooby_selected_deg_6 142
scooby_selected_deg_7 0
scooby_selected_deg_8 0
scooby_selected_deg_9 0
scooby_selected_deg_10 0
scooby_selected_deg_11 0
scooby_selected_deg_12 0
scooby_selected_deg_13 0
scooby_selected_deg_14 0
scooby_selected_deg_15 0
scooby_selected_deg_16 0

scooby_state_491102|4|1 1,0,0,0,0,0,0,0,0,0,0,0,0,0,0,1,
scooby_state_4de870|33|0 1,0,0,0,0,0,0,0,0,0,0,0,0,0,0,1,
scooby_state_4910c0|3|1 1,0,0,0,0,0,0,0,0,0,0,0,0,0,0,1,
scooby_state_490b99|63|0 1,0,0,0,0,0,0,0,0,0,0,0,0,0,0,1,
scooby_state_4dfe41|57|-5 1,0,0,0,0,0,0,0,0,0,0,0,0,0,0,1,
scooby_state_4949a7|46|-2 1,0,0,0,0,0,0,0,0,0,0,0,0,0,0,1,
scooby_state_422681|26|1 1,0,0,0,0,0,0,0,0,0,0,0,0,0,0,1,
scooby_state_4f59e3|60|1 1,0,0,0,0,0,0,0,0,0,0,0,0,0,0,1,
scooby_state_495c30|48|0 1,0,0,0,0,0,0,0,0,0,0,0,0,0,0,1,
scooby_state_4faed0|59|3 1,0,0,0,0,0,0,0,0,0,0,0,0,0,0,1,
scooby_state_494828|32|-5 1,0,0,0,0,0,0,0,0,0,0,0,0,0,0,1,
scooby_state_491484|18|1 1,0,0,0,0,0,0,0,0,0,0,0,0,0,0,1,
scooby_state_4e2a05|40|1 1,0,0,0,0,0,0,0,0,0,0,0,0,0,0,1,
scooby_state_4dff7e|61|1 1,0,0,0,0,0,0,0,0,0,0,0,0,0,0,1,
scooby_state_491258|9|5 1,0,0,0,0,0,0,0,0,0,0,0,0,0,0,1,
scooby_state_4dff04|60|1 1,0,0,0,0,0,0,0,0,0,0,0,0,0,0,1,
scooby_state_422676|25|0 1,0,0,0,0,0,0,0,0,0,0,0,0,0,0,1,
scooby_state_4e9cd0|51|0 1,0,0,0,0,0,0,0,0,0,0,0,0,0,0,1,
scooby_state_4f5940|59|1 1,0,0,0,0,0,0,0,0,0,0,0,0,0,0,1,
scooby_state_4f59dc|6|1 1,0,0,0,0,0,0,0,0,0,0,0,0,0,0,1,
scooby_state_4dfe41|22|-1 1,0,0,0,0,0,0,0,0,0,0,0,0,0,0,1,
scooby_state_4dfe03|56|5 1,0,0,0,0,0,0,0,0,0,0,0,0,0,0,1,
scooby_state_491549|21|1 1,0,0,0,0,0,0,0,0,0,0,0,0,0,0,1,
scooby_state_47e440|17|1 1,0,0,0,0,0,0,0,0,0,0,0,0,0,0,1,
scooby_state_4f59b2|18|1 1,0,0,0,0,0,0,0,0,0,0,0,0,0,0,1,
scooby_state_4fb4c2|19|1 1,0,0,0,0,0,0,0,0,0,0,0,0,0,0,1,
scooby_state_4003c0|15|0 1,0,0,0,0,0,0,0,0,0,0,0,0,0,0,1,
scooby_state_494d00|52|1 1,0,0,0,0,0,0,0,0,0,0,0,0,0,0,1,
scooby_state_47e518|20|2 1,0,0,0,0,0,0,0,0,0,0,0,0,0,0,1,
scooby_state_4909fb|19|0 1,0,0,0,0,0,0,0,0,0,0,0,0,0,0,1,
scooby_state_4fb9c0|39|33 1,0,0,0,0,0,0,0,0,0,0,0,0,0,0,1,
scooby_state_47d744|29|1 1,0,0,0,0,0,0,0,0,0,0,0,0,0,0,1,
scooby_state_491060|1|-23 1,0,0,0,0,0,0,0,0,0,0,0,0,0,0,1,
scooby_state_4f59e3|25|1 1,0,0,0,0,0,0,0,0,0,0,0,0,0,0,1,
scooby_state_47e480|18|1 1,0,0,0,0,0,0,0,0,0,0,0,0,0,0,1,
scooby_state_47dc40|49|1 1,0,0,0,0,0,0,0,0,0,0,0,0,0,0,1,
scooby_state_4f59e3|55|1 1,0,0,0,0,0,0,0,0,0,0,0,0,0,0,1,
scooby_state_4f59e3|20|1 1,0,0,0,0,0,0,0,0,0,0,0,0,0,0,1,
scooby_state_4e9d41|53|1 1,0,0,0,0,0,0,0,0,0,0,0,0,0,0,1,
scooby_state_495bb0|46|-3 1,0,0,0,0,0,0,0,0,0,0,0,0,0,0,1,
scooby_state_4e9d20|52|1 1,0,0,0,0,0,0,0,0,0,0,0,0,0,0,1,
scooby_state_494888|34|-7 1,0,0,0,0,0,0,0,0,0,0,0,0,0,0,1,
scooby_state_4f59e3|30|1 1,0,0,0,0,0,0,0,0,0,0,0,0,0,0,1,
scooby_state_4225c0|23|1 1,0,0,0,0,0,0,0,0,0,0,0,0,0,0,1,
scooby_state_490d29|38|5 1,0,0,0,0,0,0,0,0,0,0,0,0,0,0,1,
scooby_state_47f247|9|1 1,0,0,0,0,0,0,0,0,0,0,0,0,0,0,1,
scooby_state_490aa2|47|0 1,0,0,0,0,0,0,0,0,0,0,0,0,0,0,1,
scooby_state_47d690|26|0 1,0,0,0,0,0,0,0,0,0,0,0,0,0,0,1,
scooby_state_4948a7|0|0 1,0,0,0,0,0,0,0,0,0,0,0,0,0,0,1,
scooby_state_4e29c2|39|1 1,0,0,0,0,0,0,0,0,0,0,0,0,0,0,1,
scooby_state_490b90|46|3 1,0,0,0,0,0,0,0,0,0,0,0,0,0,0,1,
scooby_state_4f59dc|56|1 1,0,0,0,0,0,0,0,0,0,0,0,0,0,0,1,
scooby_state_4f59e3|56|1 1,0,0,0,0,0,0,0,0,0,0,0,0,0,0,1,
scooby_state_486cc2|20|0 1,0,0,0,0,0,0,0,0,0,0,0,0,0,0,1,
scooby_state_4f92c6|11|1 1,0,0,0,0,0,0,0,0,0,0,0,0,0,0,1,
scooby_state_494cd0|51|18 1,0,0,0,0,0,0,0,0,0,0,0,0,0,0,1,
scooby_state_4deb02|44|-14 1,0,0,0,0,0,0,0,0,0,0,0,0,0,0,1,
scooby_state_490a40|41|-21 1,0,0,0,0,0,0,0,0,0,0,0,0,0,0,1,
scooby_state_4e2945|37|1 1,0,0,0,0,0,0,0,0,0,0,0,0,0,0,1,
scooby_state_491608|24|3 1,0,0,0,0,0,0,0,0,0,0,0,0,0,0,1,
scooby_state_4ded00|52|14 1,0,0,0,0,0,0,0,0,0,0,0,0,0,0,1,
scooby_state_4df3b5|14|-43 1,0,0,0,0,0,0,0,0,0,0,0,0,0,0,1,
scooby_state_4dfd6e|23|0 1,0,0,0,0,0,0,0,0,0,0,0,0,0,0,1,
scooby_state_4f59dc|21|1 1,0,0,0,0,0,0,0,0,0,0,0,0,0,0,1,
scooby_state_490aa2|42|1 1,0,0,0,0,0,0,0,0,0,0,0,0,0,0,1,
scooby_state_4909a0|38|-13 1,0,0,0,0,0,0,0,0,0,0,0,0,0,0,1,
scooby_state_491010|0|-19 1,0,0,0,0,0,0,0,0,0,0,0,0,0,0,1,
scooby_state_4914e8|19|6 1,0,0,0,0,0,0,0,0,0,0,0,0,0,0,1,
scooby_state_4e0285|10|1 1,0,0,0,0,0,0,0,0,0,0,0,0,0,0,1,
scooby_state_486a40|41|-5 1,0,0,0,0,0,0,0,0,0,0,0,0,0,0,1,
scooby_state_4f59b9|47|1 1,0,0,0,0,0,0,0,0,0,0,0,0,0,0,1,
scooby_state_486b50|45|0 1,0,0,0,0,0,0,0,0,0,0,0,0,0,0,1,
scooby_state_47e3e0|15|-9 1,0,0,0,0,0,0,0,0,0,0,0,0,0,0,1,
scooby_state_49485f|23|1 1,0,0,0,0,0,0,0,0,0,0,0,0,0,0,1,
scooby_state_4f59b2|8|1 1,0,0,0,0,0,0,0,0,0,0,0,0,0,0,1,
scooby_state_4f59e3|5|1 1,0,0,0,0,0,0,0,0,0,0,0,0,0,0,1,
scooby_state_4949cf|39|1 1,0,0,0,0,0,0,0,0,0,0,0,0,0,0,1,
scooby_state_4dfd30|52|0 1,0,0,0,0,0,0,0,0,0,0,0,0,0,0,1,
scooby_state_494944|37|1 1,0,0,0,0,0,0,0,0,0,0,0,0,0,0,1,
scooby_state_494840|22|2 1,0,0,0,0,0,0,0,0,0,0,0,0,0,0,1,
scooby_state_4e2500|20|-23 1,0,0,0,0,0,0,0,0,0,0,0,0,0,0,1,
scooby_state_4f92d3|52|0 1,0,0,0,0,0,0,0,0,0,0,0,0,0,0,1,
scooby_state_4f5940|4|1 1,0,0,0,0,0,0,0,0,0,0,0,0,0,0,1,
scooby_state_4e294c|33|-1 1,0,0,0,0,0,0,0,0,0,0,0,0,0,0,1,
scooby_state_4e0241|9|1 1,0,0,0,0,0,0,0,0,0,0,0,0,0,0,1,
scooby_state_4dff82|62|1 1,0,0,0,0,0,0,0,0,0,0,0,0,0,0,1,
scooby_state_490d90|54|2 1,0,0,0,0,0,0,0,0,0,0,0,0,0,0,1,
scooby_state_4f59e3|21|1 1,0,0,0,0,0,0,0,0,0,0,0,0,0,0,1,
scooby_state_4f92b0|10|0 1,0,0,0,0,0,0,0,0,0,0,0,0,0,0,1,
scooby_state_4f5940|30|1 1,0,0,0,0,0,0,0,0,0,0,0,0,0,0,1,
scooby_state_494c28|48|14 1,0,0,0,0,0,0,0,0,0,0,0,0,0,0,1,
scooby_state_4e9d81|54|1 1,0,0,0,0,0,0,0,0,0,0,0,0,0,0,1,
scooby_state_4225c5|55|0 1,0,0,0,0,0,0,0,0,0,0,0,0,0,0,1,
scooby_state_4fae01|56|1 1,0,0,0,0,0,0,0,0,0,0,0,0,0,0,1,
scooby_state_4fadd0|55|0 1,0,0,0,0,0,0,0,0,0,0,0,0,0,0,1,
scooby_state_4f59b2|54|1 1,0,0,0,0,0,0,0,0,0,0,0,0,0,0,1,
scooby_state_4fb182|6|1 1,0,0,0,0,0,0,0,0,0,0,0,0,0,0,1,
scooby_state_422600|24|1 1,0,0,0,0,0,0,0,0,0,0,0,0,0,0,1,
scooby_state_494a88|42|2 1,0,0,0,0,0,0,0,0,0,0,0,0,0,0,1,
scooby_state_494706|28|1 1,0,0,0,0,0,0,0,0,0,0,0,0,0,0,1,
scooby_state_4fb140|5|-14 1,0,0,0,0,0,0,0,0,0,0,0,0,0,0,1,
scooby_state_4946e0|27|-26 1,0,0,0,0,0,0,0,0,0,0,0,0,0,0,1,
scooby_state_4225cc|56|1 1,0,0,0,0,0,0,0,0,0,0,0,0,0,0,1,
scooby_state_4e2a42|41|1 1,0,0,0,0,0,0,0,0,0,0,0,0,0,0,1,
scooby_state_490a30|40|1 1,0,0,0,0,0,0,0,0,0,0,0,0,0,0,1,
scooby_state_4f59e3|10|1 1,0,0,0,0,0,0,0,0,0,0,0,0,0,0,1,
scooby_state_47ba51|41|1 1,0,0,0,0,0,0,0,0,0,0,0,0,0,0,1,
scooby_state_47ba10|40|0 1,0,0,0,0,0,0,0,0,0,0,0,0,0,0,1,
scooby_state_4803a0|14|0 1,0,0,0,0,0,0,0,0,0,0,0,0,0,0,1,
scooby_state_47e29a|10|8 1,0,0,0,0,0,0,0,0,0,0,0,0,0,0,1,
scooby_state_4f5940|5|1 1,0,0,0,0,0,0,0,0,0,0,0,0,0,0,1,
scooby_state_47e088|2|-6 1,0,0,0,0,0,0,0,0,0,0,0,0,0,0,1,
scooby_state_47dd38|52|2 1,0,0,0,0,0,0,0,0,0,0,0,0,0,0,1,
scooby_state_4de9c4|39|-13 1,0,0,0,0,0,0,0,0,0,0,0,0,0,0,1,
scooby_state_47a950|37|0 1,0,0,0,0,0,0,0,0,0,0,0,0,0,0,1,
scooby_state_4f59b9|22|1 1,0,0,0,0,0,0,0,0,0,0,0,0,0,0,1,
scooby_state_4f5940|9|1 1,0,0,0,0,0,0,0,0,0,0,0,0,0,0,1,
scooby_state_4f5940|0|-63 1,0,0,0,0,0,0,0,0,0,0,0,0,0,0,1,
scooby_state_490d29|39|1 1,0,0,0,0,0,0,0,0,0,0,0,0,0,0,1,
scooby_state_4dfd41|53|1 1,0,0,0,0,0,0,0,0,0,0,0,0,0,0,1,
scooby_state_491366|2|1 1,0,0,0,0,0,0,0,0,0,0,0,0,0,0,1,
scooby_state_4dee06|56|1 1,0,0,0,0,0,0,0,0,0,0,0,0,0,0,1,
scooby_state_4dfec2|59|1 1,0,0,0,0,0,0,0,0,0,0,0,0,0,0,1,
scooby_state_4f59b9|2|1 1,0,0,0,0,0,0,0,0,0,0,0,0,0,0,1,
scooby_state_4f59b2|1|0 1,0,0,0,0,0,0,0,0,0,0,0,0,0,0,1,
scooby_state_4e2ad0|43|2 1,0,0,0,0,0,0,0,0,0,0,0,0,0,0,1,
scooby_state_47f218|8|2 1,0,0,0,0,0,0,0,0,0,0,0,0,0,0,1,
scooby_state_4f59dc|26|1 1,0,0,0,0,0,0,0,0,0,0,0,0,0,0,1,
scooby_state_47fe50|57|48 1,0,0,0,0,0,0,0,0,0,0,0,0,0,0,1,
scooby_state_486c83|50|11 1,0,0,0,0,0,0,0,0,0,0,0,0,0,0,1,
scooby_state_486c60|49|-3 1,0,0,0,0,0,0,0,0,0,0,0,0,0,0,1,
scooby_state_47de41|57|1 1,0,0,0,0,0,0,0,0,0,0,0,0,0,0,1,
scooby_state_4f92d3|48|-1 1,0,0,0,0,0,0,0,0,0,0,0,0,0,0,1,
scooby_state_4f92d3|49|-1 1,0,0,0,0,0,0,0,0,0,0,0,0,0,0,1,
scooby_state_4fb283|10|1 1,0,0,0,0,0,0,0,0,0,0,0,0,0,0,1,
scooby_state_4fb270|9|-15 1,0,0,0,0,0,0,0,0,0,0,0,0,0,0,1,
scooby_state_4f92d3|51|-1 1,0,0,0,0,0,0,0,0,0,0,0,0,0,0,1,
scooby_state_4f59b9|17|1 1,0,0,0,0,0,0,0,0,0,0,0,0,0,0,1,
scooby_state_4e2500|18|-4 1,0,0,0,0,0,0,0,0,0,0,0,0,0,0,1,
scooby_state_47ecad|30|1 1,0,0,0,0,0,0,0,0,0,0,0,0,0,0,1,
scooby_state_4fbaa0|42|32 1,0,0,0,0,0,0,0,0,0,0,0,0,0,0,1,
scooby_state_491193|6|-4 1,0,0,0,0,0,0,0,0,0,0,0,0,0,0,1,
scooby_state_47ecad|29|0 1,0,0,0,0,0,0,0,0,0,0,0,0,0,0,1,
scooby_state_47fee8|59|-2 1,0,0,0,0,0,0,0,0,0,0,0,0,0,0,1,
scooby_state_47ec80|50|36 1,0,0,0,0,0,0,0,0,0,0,0,0,0,0,1,
scooby_state_47d702|28|1 1,0,0,0,0,0,0,0,0,0,0,0,0,0,0,1,
scooby_state_47e3a0|14|-11 1,0,0,0,0,0,0,0,0,0,0,0,0,0,0,1,
scooby_state_422590|22|-4 1,0,0,0,0,0,0,0,0,0,0,0,0,0,0,1,
scooby_state_47dc8c|50|1 1,0,0,0,0,0,0,0,0,0,0,0,0,0,0,1,
scooby_state_478e40|57|0 1,0,0,0,0,0,0,0,0,0,0,0,0,0,0,1,
scooby_state_478e30|56|-2 1,0,0,0,0,0,0,0,0,0,0,0,0,0,0,1,
scooby_state_47f1b0|6|-14 1,0,0,0,0,0,0,0,0,0,0,0,0,0,0,1,
scooby_state_4f59a0|38|1 1,0,0,0,0,0,0,0,0,0,0,0,0,0,0,1,
scooby_state_47e641|25|5 1,0,0,0,0,0,0,0,0,0,0,0,0,0,0,1,
scooby_state_47f510|20|0 1,0,0,0,0,0,0,0,0,0,0,0,0,0,0,1,
scooby_state_494d50|53|1 1,0,0,0,0,0,0,0,0,0,0,0,0,0,0,1,
scooby_state_486a82|42|1 1,0,0,0,0,0,0,0,0,0,0,0,0,0,0,1,
scooby_state_4dfde9|55|2 1,0,0,0,0,0,0,0,0,0,0,0,0,0,0,1,
scooby_state_4fb4b5|0|-13 1,0,0,0,0,0,0,0,0,0,0,0,0,0,0,1,
scooby_state_4fb4b0|18|0 1,0,0,0,0,0,0,0,0,0,0,0,0,0,0,1,
scooby_state_4f5940|29|1 1,0,0,0,0,0,0,0,0,0,0,0,0,0,0,1,
scooby_state_47e1c0|7|-48 1,0,0,0,0,0,0,0,0,0,0,0,0,0,0,1,
scooby_state_47e200|8|2 1,0,0,0,0,0,0,0,0,0,0,0,0,0,0,1,
scooby_state_4f59b2|28|1 1,0,0,0,0,0,0,0,0,0,0,0,0,0,0,1,
scooby_state_4f59dc|46|1 1,0,0,0,0,0,0,0,0,0,0,0,0,0,0,1,
scooby_state_47dc00|48|1 1,0,0,0,0,0,0,0,0,0,0,0,0,0,0,1,
scooby_state_47e1b0|6|-1 1,0,0,0,0,0,0,0,0,0,0,0,0,0,0,1,
scooby_state_494740|29|1 1,0,0,0,0,0,0,0,0,0,0,0,0,0,0,1,
scooby_state_47ecc1|51|1 1,0,0,0,0,0,0,0,0,0,0,0,0,0,0,1,
scooby_state_47dbc0|47|1 1,0,0,0,0,0,0,0,0,0,0,0,0,0,0,1,
scooby_state_491366|1|0 1,0,0,0,0,0,0,0,0,0,0,0,0,0,0,1,
scooby_state_4f59b2|13|1 1,0,0,0,0,0,0,0,0,0,0,0,0,0,0,1,
scooby_state_47de01|56|1 1,0,0,0,0,0,0,0,0,0,0,0,0,0,0,1,
scooby_state_47d800|32|1 1,0,0,0,0,0,0,0,0,0,0,0,0,0,0,1,
scooby_state_47db81|46|1 1,0,0,0,0,0,0,0,0,0,0,0,0,0,0,1,
scooby_state_47db65|45|12 1,0,0,0,0,0,0,0,0,0,0,0,0,0,0,1,
scooby_state_478e9b|58|1 1,0,0,0,0,0,0,0,0,0,0,0,0,0,0,1,
scooby_state_47ff60|61|3 1,0,0,0,0,0,0,0,0,0,0,0,0,0,0,1,
scooby_state_47d840|33|1 1,0,0,0,0,0,0,0,0,0,0,0,0,0,0,1,
scooby_state_47d7e2|22|-24 1,0,0,0,0,0,0,0,0,0,0,0,0,0,0,1,
scooby_state_47d785|30|1 1,0,0,0,0,0,0,0,0,0,0,0,0,0,0,1,
scooby_state_47edc4|55|4 1,0,0,0,0,0,0,0,0,0,0,0,0,0,0,1,
scooby_state_486cf0|51|9 1,0,0,0,0,0,0,0,0,0,0,0,0,0,0,1,
scooby_state_47ecb5|48|-1 1,0,0,0,0,0,0,0,0,0,0,0,0,0,0,1,
scooby_state_4f59b9|42|1 1,0,0,0,0,0,0,0,0,0,0,0,0,0,0,1,
scooby_state_4f5940|10|1 1,0,0,0,0,0,0,0,0,0,0,0,0,0,0,1,
scooby_state_4f59b9|32|1 1,0,0,0,0,0,0,0,0,0,0,0,0,0,0,1,
scooby_state_47ff00|60|1 1,0,0,0,0,0,0,0,0,0,0,0,0,0,0,1,
scooby_state_4f59b2|33|1 1,0,0,0,0,0,0,0,0,0,0,0,0,0,0,1,
scooby_state_4f59b9|18|1 1,0,0,0,0,0,0,0,0,0,0,0,0,0,0,1,
scooby_state_4f5940|34|1 1,0,0,0,0,0,0,0,0,0,0,0,0,0,0,1,
scooby_state_4f59e3|35|1 1,0,0,0,0,0,0,0,0,0,0,0,0,0,0,1,
scooby_state_4f59dc|36|1 1,0,0,0,0,0,0,0,0,0,0,0,0,0,0,1,
scooby_state_4f59b2|38|1 1,0,0,0,0,0,0,0,0,0,0,0,0,0,0,1,
scooby_state_4f5940|39|1 1,0,0,0,0,0,0,0,0,0,0,0,0,0,0,1,
scooby_state_4f59e3|40|1 1,0,0,0,0,0,0,0,0,0,0,0,0,0,0,1,
scooby_state_422570|5|-48 1,0,0,0,0,0,0,0,0,0,0,0,0,0,0,1,
scooby_state_4f59b2|43|1 1,0,0,0,0,0,0,0,0,0,0,0,0,0,0,1,
scooby_state_4f5940|49|1 1,0,0,0,0,0,0,0,0,0,0,0,0,0,0,1,
scooby_state_4f59e3|50|1 1,0,0,0,0,0,0,0,0,0,0,0,0,0,0,1,
scooby_state_4f59dc|51|1 1,0,0,0,0,0,0,0,0,0,0,0,0,0,0,1,
scooby_state_4f5940|54|1 1,0,0,0,0,0,0,0,0,0,0,0,0,0,0,1,
scooby_state_4f59b9|57|1 1,0,0,0,0,0,0,0,0,0,0,0,0,0,0,1,
scooby_state_4f59dc|12|1 1,0,0,0,0,0,0,0,0,0,0,0,0,0,0,1,
scooby_state_4f59b2|58|1 1,0,0,0,0,0,0,0,0,0,0,0,0,0,0,1,
scooby_state_4f59b9|48|1 1,0,0,0,0,0,0,0,0,0,0,0,0,0,0,1,
scooby_state_4f59b9|62|1 1,0,0,0,0,0,0,0,0,0,0,0,0,0,0,1,
scooby_state_4f59dc|22|1 1,0,0,0,0,0,0,0,0,0,0,0,0,0,0,1,
scooby_state_4f5940|14|1 1,0,0,0,0,0,0,0,0,0,0,0,0,0,0,1,
scooby_state_4df3c0|15|1 1,0,0,0,0,0,0,0,0,0,0,0,0,0,0,1,
scooby_state_486cbf|60|-1 1,0,0,0,0,0,0,0,0,0,0,0,0,0,0,1,
scooby_state_495c50|49|1 1,0,0,0,0,0,0,0,0,0,0,0,0,0,0,1,
scooby_state_4deec4|59|15 1,0,0,0,0,0,0,0,0,0,0,0,0,0,0,1,
scooby_state_4f59b9|12|1 1,0,0,0,0,0,0,0,0,0,0,0,0,0,0,1,
scooby_state_49147f|17|-8 1,0,0,0,0,0,0,0,0,0,0,0,0,0,0,1,
scooby_state_49165b|25|19 1,0,0,0,0,0,0,0,0,0,0,0,0,0,0,1,
scooby_state_49498c|38|-10 1,0,0,0,0,0,0,0,0,0,0,0,0,0,0,1,
scooby_state_490cdd|51|11 1,0,0,0,0,0,0,0,0,0,0,0,0,0,0,1,
scooby_state_4f58e0|35|0 1,0,0,0,0,0,0,0,0,0,0,0,0,0,0,1,
scooby_state_4f59b2|63|1 1,0,0,0,0,0,0,0,0,0,0,0,0,0,0,1,
scooby_state_422600|54|-2 1,0,0,0,0,0,0,0,0,0,0,0,0,0,0,1,
scooby_state_4e297e|51|1 1,0,0,0,0,0,0,0,0,0,0,0,0,0,0,1,
scooby_state_4f595b|37|1 1,0,0,0,0,0,0,0,0,0,0,0,0,0,0,1,
scooby_state_4869c0|39|-10 1,0,0,0,0,0,0,0,0,0,0,0,0,0,0,1,
scooby_state_4fb600|24|-15 1,0,0,0,0,0,0,0,0,0,0,0,0,0,0,1,
scooby_state_486b8f|46|1 1,0,0,0,0,0,0,0,0,0,0,0,0,0,0,1,
scooby_state_4f5940|24|1 1,0,0,0,0,0,0,0,0,0,0,0,0,0,0,1,
scooby_state_4f59b9|27|1 1,0,0,0,0,0,0,0,0,0,0,0,0,0,0,1,
scooby_state_4f59dc|31|1 1,0,0,0,0,0,0,0,0,0,0,0,0,0,0,1,
scooby_state_422570|21|-3 1,0,0,0,0,0,0,0,0,0,0,0,0,0,0,1,
scooby_state_4f59e3|46|1 1,0,0,0,0,0,0,0,0,0,0,0,0,0,0,1,
scooby_state_4f5940|35|1 1,0,0,0,0,0,0,0,0,0,0,0,0,0,0,1,
scooby_state_4f59e3|36|1 1,0,0,0,0,0,0,0,0,0,0,0,0,0,0,1,
scooby_state_4f59dc|37|1 1,0,0,0,0,0,0,0,0,0,0,0,0,0,0,1,
scooby_state_4f59e3|61|1 1,0,0,0,0,0,0,0,0,0,0,0,0,0,0,1,
scooby_state_4f59b9|38|1 1,0,0,0,0,0,0,0,0,0,0,0,0,0,0,1,
scooby_state_4f59b9|63|1 1,0,0,0,0,0,0,0,0,0,0,0,0,0,0,1,
scooby_state_4f59b2|39|1 1,0,0,0,0,0,0,0,0,0,0,0,0,0,0,1,
scooby_state_4f59e3|41|1 1,0,0,0,0,0,0,0,0,0,0,0,0,0,0,1,
scooby_state_4f59b9|43|1 1,0,0,0,0,0,0,0,0,0,0,0,0,0,0,1,
scooby_state_4f59b2|44|1 1,0,0,0,0,0,0,0,0,0,0,0,0,0,0,1,
scooby_state_4f5940|45|1 1,0,0,0,0,0,0,0,0,0,0,0,0,0,0,1,
scooby_state_4f59b2|34|1 1,0,0,0,0,0,0,0,0,0,0,0,0,0,0,1,
scooby_state_4f59b2|49|1 1,0,0,0,0,0,0,0,0,0,0,0,0,0,0,1,
scooby_state_4f5940|50|1 1,0,0,0,0,0,0,0,0,0,0,0,0,0,0,1,
scooby_state_4f59dc|52|1 1,0,0,0,0,0,0,0,0,0,0,0,0,0,0,1,
scooby_state_4f59b9|53|1 1,0,0,0,0,0,0,0,0,0,0,0,0,0,0,1,
scooby_state_4f5940|55|1 1,0,0,0,0,0,0,0,0,0,0,0,0,0,0,1,
scooby_state_4f59dc|57|1 1,0,0,0,0,0,0,0,0,0,0,0,0,0,0,1,
scooby_state_4f59b9|58|1 1,0,0,0,0,0,0,0,0,0,0,0,0,0,0,1,
scooby_state_4f5940|60|1 1,0,0,0,0,0,0,0,0,0,0,0,0,0,0,1,
scooby_state_47ff80|62|2 1,0,0,0,0,0,0,0,0,0,0,0,0,0,0,1,
scooby_state_50a480|18|0 1,0,0,0,0,0,0,0,0,0,0,0,0,0,0,1,
scooby_state_4f59e3|16|1 1,0,0,0,0,0,0,0,0,0,0,0,0,0,0,1,
scooby_state_4f59e3|1|1 1,0,0,0,0,0,0,0,0,0,0,0,0,0,0,1,
scooby_state_4f59dc|2|1 1,0,0,0,0,0,0,0,0,0,0,0,0,0,0,1,
scooby_state_4f59b9|3|1 1,0,0,0,0,0,0,0,0,0,0,0,0,0,0,1,
scooby_state_4f59e3|6|1 1,0,0,0,0,0,0,0,0,0,0,0,0,0,0,1,
scooby_state_4f59dc|7|1 1,0,0,0,0,0,0,0,0,0,0,0,0,0,0,1,
scooby_state_4f59dc|47|1 1,0,0,0,0,0,0,0,0,0,0,0,0,0,0,1,
scooby_state_4f59b9|8|1 1,0,0,0,0,0,0,0,0,0,0,0,0,0,0,1,
scooby_state_4f59b2|9|1 1,0,0,0,0,0,0,0,0,0,0,0,0,0,0,1,
scooby_state_4f59e3|11|1 1,0,0,0,0,0,0,0,0,0,0,0,0,0,0,1,
scooby_state_4f59b2|14|1 1,0,0,0,0,0,0,0,0,0,0,0,0,0,0,1,
scooby_state_4f5940|15|1 1,0,0,0,0,0,0,0,0,0,0,0,0,0,0,1,
scooby_state_4de881|34|1 1,0,0,0,0,0,0,0,0,0,0,0,0,0,0,1,
scooby_state_4f59dc|17|1 1,0,0,0,0,0,0,0,0,0,0,0,0,0,0,1,
scooby_state_4f59b2|19|1 1,0,0,0,0,0,0,0,0,0,0,0,0,0,0,1,
scooby_state_4f5940|20|1 1,0,0,0,0,0,0,0,0,0,0,0,0,0,0,1,
scooby_state_4f59b9|23|1 1,0,0,0,0,0,0,0,0,0,0,0,0,0,0,1,
scooby_state_4f59b2|24|1 1,0,0,0,0,0,0,0,0,0,0,0,0,0,0,1,
scooby_state_4f59e3|26|1 1,0,0,0,0,0,0,0,0,0,0,0,0,0,0,1,
scooby_state_4f59b2|29|1 1,0,0,0,0,0,0,0,0,0,0,0,0,0,0,1,
scooby_state_4f59e3|31|1 1,0,0,0,0,0,0,0,0,0,0,0,0,0,0,1,
scooby_state_4f59b2|62|2 1,0,0,0,0,0,0,0,0,0,0,0,0,0,0,1,
scooby_state_4f59dc|32|1 1,0,0,0,0,0,0,0,0,0,0,0,0,0,0,1,
scooby_state_477f20|60|0 1,0,0,0,0,0,0,0,0,0,0,0,0,0,0,1,
scooby_state_47d6c4|27|1 1,0,0,0,0,0,0,0,0,0,0,0,0,0,0,1,
scooby_state_490c10|48|6 1,0,0,0,0,0,0,0,0,0,0,0,0,0,0,1,
scooby_state_47d7c6|31|1 1,0,0,0,0,0,0,0,0,0,0,0,0,0,0,1,
scooby_state_490a00|58|0 1,0,0,0,0,0,0,0,0,0,0,0,0,0,0,1,
scooby_state_4e2975|50|2 1,0,0,0,0,0,0,0,0,0,0,0,0,0,0,1,
scooby_state_4de8c2|35|1 1,0,0,0,0,0,0,0,0,0,0,0,0,0,0,1,
scooby_state_4f5940|44|1 1,0,0,0,0,0,0,0,0,0,0,0,0,0,0,1,
scooby_state_47e610|24|0 1,0,0,0,0,0,0,0,0,0,0,0,0,0,0,1,
scooby_state_4e2982|13|0 1,0,0,0,0,0,0,0,0,0,0,0,0,0,0,1,
scooby_state_494a70|41|0 1,0,0,0,0,0,0,0,0,0,0,0,0,0,0,1,
scooby_state_47fe82|58|1 1,0,0,0,0,0,0,0,0,0,0,0,0,0,0,1,
scooby_state_4e02c0|11|1 1,0,0,0,0,0,0,0,0,0,0,0,0,0,0,1,
scooby_state_4f59b9|37|1 1,0,0,0,0,0,0,0,0,0,0,0,0,0,0,1,
scooby_state_490f80|62|24 1,0,0,0,0,0,0,0,0,0,0,0,0,0,0,1,
scooby_state_4e2935|48|0 1,0,0,0,0,0,0,0,0,0,0,0,0,0,0,1,
scooby_state_491340|13|1 1,0,0,0,0,0,0,0,0,0,0,0,0,0,0,1,
scooby_state_4f59b2|48|1 1,0,0,0,0,0,0,0,0,0,0,0,0,0,0,1,
scooby_state_4dfe03|56|1 1,0,0,0,0,0,0,0,0,0,0,0,0,0,0,1,
scooby_state_4f59e3|15|1 1,0,0,0,0,0,0,0,0,0,0,0,0,0,0,1,
scooby_state_4f59b9|7|1 1,0,0,0,0,0,0,0,0,0,0,0,0,0,0,1,
scooby_state_4e2982|38|1 1,0,0,0,0,0,0,0,0,0,0,0,0,0,0,1,
scooby_state_4f59b2|4|1 1,0,0,0,0,0,0,0,0,0,0,0,0,0,0,1,
scooby_state_4f5910|36|1 1,0,0,0,0,0,0,0,0,0,0,0,0,0,0,1,
scooby_state_491330|12|0 1,0,0,0,0,0,0,0,0,0,0,0,0,0,0,1,
scooby_state_4dea60|41|1 1,0,0,0,0,0,0,0,0,0,0,0,0,0,0,1,
scooby_state_4f59b2|3|1 1,0,0,0,0,0,0,0,0,0,0,0,0,0,0,1,
scooby_state_4f5a02|40|1 1,0,0,0,0,0,0,0,0,0,0,0,0,0,0,1,
scooby_state_4f5940|19|1 1,0,0,0,0,0,0,0,0,0,0,0,0,0,0,1,
scooby_state_4003c0|0|-56 1,0,0,0,0,0,0,0,0,0,0,0,0,0,0,1,
scooby_state_4f5940|25|1 1,0,0,0,0,0,0,0,0,0,0,0,0,0,0,1,
scooby_state_490ba8|49|-10 1,0,0,0,0,0,0,0,0,0,0,0,0,0,0,1,
scooby_state_4e08b8|34|23 1,0,0,0,0,0,0,0,0,0,0,0,0,0,0,1,
scooby_state_4dea02|40|1 1,0,0,0,0,0,0,0,0,0,0,0,0,0,0,1,
scooby_state_494a01|40|11 1,0,0,0,0,0,0,0,0,0,0,0,0,0,0,1,
scooby_state_47dfe8|63|6 1,0,0,0,0,0,0,0,0,0,0,0,0,0,0,1,
scooby_state_4f59e3|51|1 1,0,0,0,0,0,0,0,0,0,0,0,0,0,0,1,
scooby_state_4f59b2|23|1 1,0,0,0,0,0,0,0,0,0,0,0,0,0,0,1,
scooby_state_4e08c4|35|1 1,0,0,0,0,0,0,0,0,0,0,0,0,0,0,1,
scooby_state_4f92d3|50|-1 1,0,0,0,0,0,0,0,0,0,0,0,0,0,0,1,
scooby_state_4dfea6|58|2 1,0,0,0,0,0,0,0,0,0,0,0,0,0,0,1,
scooby_state_491347|34|0 1,0,0,0,0,0,0,0,0,0,0,0,0,0,0,1,
scooby_state_490a07|59|1 1,0,0,0,0,0,0,0,0,0,0,0,0,0,0,1,
scooby_state_494840|33|1 1,0,0,0,0,0,0,0,0,0,0,0,0,0,0,1,
scooby_state_4803a0|61|13 1,0,0,0,0,0,0,0,0,0,0,0,0,0,0,1,
scooby_state_4f5940|40|1 1,0,0,0,0,0,0,0,0,0,0,0,0,0,0,1,
scooby_state_4bcab0|42|2 1,0,0,0,0,0,0,0,0,0,0,0,0,0,0,1,
scooby_state_486d05|52|1 1,0,0,0,0,0,0,0,0,0,0,0,0,0,0,1,
scooby_state_4f59dc|61|1 1,0,0,0,0,0,0,0,0,0,0,0,0,0,0,1,
scooby_state_494c28|20|1 1,0,0,0,0,0,0,0,0,0,0,0,0,0,0,1,
scooby_state_4e020f|8|0 1,0,0,0,0,0,0,0,0,0,0,0,0,0,0,1,
scooby_state_49492f|36|-3 1,0,0,0,0,0,0,0,0,0,0,0,0,0,0,1,
scooby_state_4f59dc|41|1 1,0,0,0,0,0,0,0,0,0,0,0,0,0,0,1,
scooby_state_42263b|52|-2 1,0,0,0,0,0,0,0,0,0,0,0,0,0,0,1,
scooby_state_491080|2|1 1,0,0,0,0,0,0,0,0,0,0,0,0,0,0,1,
scooby_state_47ddd8|55|3 1,0,0,0,0,0,0,0,0,0,0,0,0,0,0,1,
scooby_state_495c3f|11|11 1,0,0,0,0,0,0,0,0,0,0,0,0,0,0,1,
scooby_state_491285|10|1 1,0,0,0,0,0,0,0,0,0,0,0,0,0,0,1,
scooby_state_4f59b9|52|1 1,0,0,0,0,0,0,0,0,0,0,0,0,0,0,1,
scooby_state_4dedd8|55|-4 1,0,0,0,0,0,0,0,0,0,0,0,0,0,0,1,
scooby_state_4dee89|58|17 1,0,0,0,0,0,0,0,0,0,0,0,0,0,0,1,
scooby_state_4f59e3|45|1 1,0,0,0,0,0,0,0,0,0,0,0,0,0,0,1,
scooby_state_47e401|16|1 1,0,0,0,0,0,0,0,0,0,0,0,0,0,0,1,
scooby_state_490d29|33|0 1,0,0,0,0,0,0,0,0,0,0,0,0,0,0,1,
scooby_state_495bbb|8|-3 1,0,0,0,0,0,0,0,0,0,0,0,0,0,0,1,
scooby_state_491500|20|20 1,0,0,0,0,0,0,0,0,0,0,0,0,0,0,1,
scooby_state_4949b6|1|-7 1,0,0,0,0,0,0,0,0,0,0,0,0,0,0,1,
scooby_state_4e2960|46|0 1,0,0,0,0,0,0,0,0,0,0,0,0,0,0,1,
scooby_state_490b18|44|-2 1,0,0,0,0,0,0,0,0,0,0,0,0,0,0,1,
scooby_state_4f59b9|13|1 1,0,0,0,0,0,0,0,0,0,0,0,0,0,0,1,
scooby_state_4bca30|40|0 1,0,0,0,0,0,0,0,0,0,0,0,0,0,0,1,
scooby_state_4f59dc|42|1 1,0,0,0,0,0,0,0,0,0,0,0,0,0,0,1,
scooby_state_4f59c1|39|1 1,0,0,0,0,0,0,0,0,0,0,0,0,0,0,1,
scooby_state_4909c8|39|0 1,0,0,0,0,0,0,0,0,0,0,0,0,0,0,1,
scooby_state_4f59b9|33|1 1,0,0,0,0,0,0,0,0,0,0,0,0,0,0,1,
scooby_state_490c10|48|1 1,0,0,0,0,0,0,0,0,0,0,0,0,0,0,1,
scooby_state_4f59dc|11|1 1,0,0,0,0,0,0,0,0,0,0,0,0,0,0,1,
scooby_state_490aca|43|-5 1,0,0,0,0,0,0,0,0,0,0,0,0,0,0,1,
scooby_state_4e2910|36|0 1,0,0,0,0,0,0,0,0,0,0,0,0,0,0,1,
scooby_state_47ecb5|7|0 1,0,0,0,0,0,0,0,0,0,0,0,0,0,0,1,
scooby_state_4f59b2|0|-63 1,0,0,0,0,0,0,0,0,0,0,0,0,0,0,1,
scooby_state_4f59dc|27|1 1,0,0,0,0,0,0,0,0,0,0,0,0,0,0,1,
scooby_state_4e0231|19|0 1,0,0,0,0,0,0,0,0,0,0,0,0,0,0,1,
scooby_state_4f59b2|59|1 1,0,0,0,0,0,0,0,0,0,0,0,0,0,0,1,
scooby_state_4f59dc|16|1 1,0,0,0,0,0,0,0,0,0,0,0,0,0,0,1,
scooby_state_422642|53|1 1,0,0,0,0,0,0,0,0,0,0,0,0,0,0,1,
scooby_state_4f59b9|28|1 1,0,0,0,0,0,0,0,0,0,0,0,0,0,0,1,
scooby_state_490d00|52|8 1,0,0,0,0,0,0,0,0,0,0,0,0,0,0,1,
scooby_state_490d55|53|-1 1,0,0,0,0,0,0,0,0,0,0,0,0,0,0,1,
scooby_state_4f59b2|53|1 1,0,0,0,0,0,0,0,0,0,0,0,0,0,0,1,
scooby_state_4de9a0|38|3 1,0,0,0,0,0,0,0,0,0,0,0,0,0,0,1,

scooby_action_1_deg_dist 0,112,43,0,68,0,144,0,0,0,0,0,0,0,0,0,

scooby_track_called 367
scooby_track_same_address 0
scooby_track_evict 111

scooby_reward_demand_called 367
scooby_reward_demand_pt_not_found 132
scooby_reward_demand_pt_found 235
scooby_reward_demand_pt_found_total 235
scooby_reward_demand_has_reward 0
scooby_reward_train_called 55
scooby_reward_assign_reward_called 294
scooby_reward_no_pref 0
scooby_reward_incorrect 55
scooby_reward_correct_untimely 151
scooby_reward_correct_timely 84
scooby_reward_out_of_bounds 4
scooby_reward_tracker_hit 0

scooby_reward_none_low_bw 0
scooby_reward_none_high_bw 0
scooby_reward_incorrect_low_bw 55
scooby_reward_incorrect_high_bw 0
scooby_reward_correct_untimely_low_bw 151
scooby_reward_correct_untimely_high_bw 0
scooby_reward_correct_timely_low_bw 84
scooby_reward_correct_timely_high_bw 0
scooby_reward_out_of_bounds_low_bw 4
scooby_reward_out_of_bounds_high_bw 0
scooby_reward_tracker_hit_low_bw 0
scooby_reward_tracker_hit_high_bw 0

scooby_reward_1 0,55,151,84,4,0,
scooby_reward_3 0,0,0,0,0,0,
scooby_reward_4 0,0,0,0,0,0,
scooby_reward_5 0,0,0,0,0,0,
scooby_reward_10 0,0,0,0,0,0,
scooby_reward_11 0,0,0,0,0,0,
scooby_reward_12 0,0,0,0,0,0,
scooby_reward_22 0,0,0,0,0,0,
scooby_reward_23 0,0,0,0,0,0,
scooby_reward_30 0,0,0,0,0,0,
scooby_reward_32 0,0,0,0,0,0,
scooby_reward_-1 0,0,0,0,0,0,
scooby_reward_-3 0,0,0,0,0,0,
scooby_reward_-6 0,0,0,0,0,0,
scooby_reward_0 0,0,0,0,0,0,

scooby_train_called 110
scooby_train_compute_reward 55

scooby_register_fill_called 432
scooby_register_fill_set 158
scooby_register_fill_set_total 158

scooby_register_prefetch_hit_called 781
scooby_register_prefetch_hit_set 258
scooby_register_prefetch_hit_set_total 258

scooby_pref_issue_scooby 1273

learning_engine_featurewise.action.called 367
learning_engine_featurewise.action.explore 0
learning_engine_featurewise.action.exploit 367
learning_engine_featurewise.action.fallback 0
learning_engine_featurewise.action.dyn_fallback_saved_bw 0
learning_engine_featurewise.action.dyn_fallback_saved_bw_acc 0
learning_engine_featurewise.action.index_1_explored 0
learning_engine_featurewise.action.index_1_exploited 367
learning_engine_featurewise.action.index_3_explored 0
learning_engine_featurewise.action.index_3_exploited 0
learning_engine_featurewise.action.index_4_explored 0
learning_engine_featurewise.action.index_4_exploited 0
learning_engine_featurewise.action.index_5_explored 0
learning_engine_featurewise.action.index_5_exploited 0
learning_engine_featurewise.action.index_10_explored 0
learning_engine_featurewise.action.index_10_exploited 0
learning_engine_featurewise.action.index_11_explored 0
learning_engine_featurewise.action.index_11_exploited 0
learning_engine_featurewise.action.index_12_explored 0
learning_engine_featurewise.action.index_12_exploited 0
learning_engine_featurewise.action.index_22_explored 0
learning_engine_featurewise.action.index_22_exploited 0
learning_engine_featurewise.action.index_23_explored 0
learning_engine_featurewise.action.index_23_exploited 0
learning_engine_featurewise.action.index_30_explored 0
learning_engine_featurewise.action.index_30_exploited 0
learning_engine_featurewise.action.index_32_explored 0
learning_engine_featurewise.action.index_32_exploited 0
learning_engine_featurewise.action.index_-1_explored 0
learning_engine_featurewise.action.index_-1_exploited 0
learning_engine_featurewise.action.index_-3_explored 0
learning_engine_featurewise.action.index_-3_exploited 0
learning_engine_featurewise.action.index_-6_explored 0
learning_engine_featurewise.action.index_-6_exploited 0
learning_engine_featurewise.action.index_0_explored 0
learning_engine_featurewise.action.index_0_exploited 0
learning_engine_featurewise.learn.called 110
learning_engine_featurewise.learn.su_skip_PC 0
learning_engine_featurewise.learn.su_skip_PC_Delta 0

learning_engine_featurewise.q_value_histogram.bucket_0 0
learning_engine_featurewise.q_value_histogram.bucket_1 0
learning_engine_featurewise.q_value_histogram.bucket_2 0
learning_engine_featurewise.q_value_histogram.bucket_3 0
learning_engine_featurewise.q_value_histogram.bucket_4 367
learning_engine_featurewise.q_value_histogram.bucket_5 0
learning_engine_featurewise.q_value_histogram.bucket_6 0
learning_engine_featurewise.q_value_histogram.bucket_7 0

learning_engine_featurewise.consensus.total 367
learning_engine_featurewise.consensus.feature_align_PC 336
learning_engine_featurewise.consensus.feature_align_PC_ratio 0.92
learning_engine_featurewise.consensus.feature_align_PC_Delta 353
learning_engine_featurewise.consensus.feature_align_PC_Delta_ratio 0.96
learning_engine_featurewise.consensus.feature_align_all 322
learning_engine_featurewise.consensus.feature_align_all_ratio 0.88

learning_engine_featurewise.feature_PC_min_weight 1000000.00000000
learning_engine_featurewise.feature_PC_max_weight 0.00000000
learning_engine_featurewise.feature_PC_Delta_min_weight 1000000.00000000
learning_engine_featurewise.feature_PC_Delta_max_weight 0.00000000
unique_pcs 223
unique_pages 45
unique_trigger_pcs 45
total_bitmaps_seen 0
unique_bitmaps_seen 0

scooby_bw_epochs 1847951
scooby_bw_level_0 1847951
scooby_bw_level_1 0
scooby_bw_level_2 0
scooby_bw_level_3 0

scooby_ipc_epochs 0
scooby_ipc_level_0 0
scooby_ipc_level_1 0
scooby_ipc_level_2 0
scooby_ipc_level_3 0

scooby_cache_acc_epochs 461968
scooby_cache_acc_level_0 461704
scooby_cache_acc_level_1 88
scooby_cache_acc_level_2 80
scooby_cache_acc_level_3 7
scooby_cache_acc_level_4 1
scooby_cache_acc_level_5 78
scooby_cache_acc_level_6 2
scooby_cache_acc_level_7 5
scooby_cache_acc_level_8 0
scooby_cache_acc_level_9 3

Channel_0_RQ_row_buffer_hit 2571
Channel_0_RQ_row_buffer_miss 290
Channel_0_WQ_row_buffer_hit 0
Channel_0_WQ_row_buffer_miss 0
Channel_0_WQ_full 0
Channel_0_dbus_congested 0

avg_congested_cycle 0

DRAM_bw_pochs 1847951
DRAM_bw_level_0 1847951
DRAM_bw_level_1 0
DRAM_bw_level_2 0
DRAM_bw_level_3 0
