*************************************************
   ChampSim Multicore Out-of-Order Simulator
   Last compiled: Dec  3 2023 14:43:31
*************************************************
parsing config file: /home/pcineverdies/Projects/RM4ES/Prefetcher-Research-Project/config/sfp.ini

trace_0 /home/pcineverdies/Projects/RM4ES/Prefetcher-Research-Project/traces/649.fotonik3d_s-1B.champsimtrace.xz
adding L2C_PREFETCHER: SFP
Initialize SHIP state
warmup_instructions 100000
simulation_instructions 50000000
champsim_seed 115
measure_ipc 0
measure_ipc_epoch 1000
measure_dram_bw 1
measure_dram_bw_epoch 256
measure_cache_acc 1
measure_cache_acc_epoch 1024
l1d_perfect 0
l2c_perfect 0
llc_perfect 0
l1d_semi_perfect 0
l2c_semi_perfect 0
llc_semi_perfect 0
semi_perfect_cache_page_buffer_size 64

num_cpus 1
cpu_freq 550
dram_io_freq 2400
page_size 4096
block_size 64
max_read_per_cycle 8
max_fill_per_cycle 1
dram_channels 1
log2_dram_channels 0
dram_ranks 1
dram_banks 8
dram_rows 65536
dram_columns 128
dram_row_size 8
dram_size 4096
dram_pages 1048576

fetch_width 2
decode_width 2
exec_width 2
lq_width 1
sq_width 1
retire_width 5
scheduler_size 1
branch_mispredict_penalty 1
rob_size 256
lq_size 72
sq_size 56
num_instr_destinations_sparc 4
num_instr_destinations 2
num_instr_sources 4

itlb_set 1024
itlb_way 1024
itlb_rq_size 16
itlb_wq_size 16
itlb_pq_size 0
itlb_mshr_size 8
itlb_latency 0

dtlb_set 1024
dtlb_way 1024
dtlb_rq_size 32
dtlb_wq_size 32
dtlb_pq_size 0
dtlb_mshr_size 8
dtlb_latency 1

stlb_set 1024
stlb_way 1024
stlb_rq_size 32
stlb_wq_size 32
stlb_pq_size 0
stlb_mshr_size 16
stlb_latency 0

l1i_size 32
l1i_set 64
l1i_way 8
l1i_rq_size 64
l1i_wq_size 64
l1i_pq_size 32
l1i_mshr_size 8
l1i_latency 4

l1d_size 48
l1d_set 64
l1d_way 12
l1d_rq_size 64
l1d_wq_size 64
l1d_pq_size 8
l1d_mshr_size 16
l1d_latency 5

l2c_size 512
l2c_set 1024
l2c_way 8
l2c_rq_size 32
l2c_wq_size 32
l2c_pq_size 16
l2c_mshr_size 32
l2c_latency 10

llc_size 2048
llc_set 2048
llc_way 16
llc_rq_size 32
llc_wq_size 32
llc_pq_size 32
llc_mshr_size 64
llc_latency 20

dram_channel_width 8
dram_wq_size 64
dram_rq_size 64
tRP 15
tRCD 15
tCAS 12.5
dram_dbus_turn_around_time 4
dram_write_high_wm 56
dram_write_low_wm 48
min_dram_writes_per_switch 16
dram_mtps 2400
dram_dbus_return_time 1



Warmup complete CPU  0 instructions:     100001 cycles:     139027 (Simulation time: 0 hr 0 min 0 sec) 

Heartbeat CPU  0 instructions:    1000000 cycles:    8653387 heartbeat IPC: 0.11556 cumulative IPC: 0.10570 (Simulation time: 0 hr 0 min 2 sec) 
Heartbeat CPU  0 instructions:    2000000 cycles:   18113388 heartbeat IPC: 0.10571 cumulative IPC: 0.10571 (Simulation time: 0 hr 0 min 5 sec) 
Heartbeat CPU  0 instructions:    3000000 cycles:   27573783 heartbeat IPC: 0.10570 cumulative IPC: 0.10571 (Simulation time: 0 hr 0 min 8 sec) 
Heartbeat CPU  0 instructions:    4000000 cycles:   37032296 heartbeat IPC: 0.10572 cumulative IPC: 0.10571 (Simulation time: 0 hr 0 min 11 sec) 
Heartbeat CPU  0 instructions:    5000000 cycles:   46491106 heartbeat IPC: 0.10572 cumulative IPC: 0.10571 (Simulation time: 0 hr 0 min 13 sec) 
Heartbeat CPU  0 instructions:    6000000 cycles:   55950145 heartbeat IPC: 0.10572 cumulative IPC: 0.10571 (Simulation time: 0 hr 0 min 16 sec) 
Heartbeat CPU  0 instructions:    7000000 cycles:   65408678 heartbeat IPC: 0.10572 cumulative IPC: 0.10572 (Simulation time: 0 hr 0 min 18 sec) 
Heartbeat CPU  0 instructions:    8000000 cycles:   74867483 heartbeat IPC: 0.10572 cumulative IPC: 0.10572 (Simulation time: 0 hr 0 min 21 sec) 
Heartbeat CPU  0 instructions:    9000000 cycles:   84326097 heartbeat IPC: 0.10572 cumulative IPC: 0.10572 (Simulation time: 0 hr 0 min 23 sec) 
Heartbeat CPU  0 instructions:   10000000 cycles:   93784888 heartbeat IPC: 0.10572 cumulative IPC: 0.10572 (Simulation time: 0 hr 0 min 26 sec) 
Heartbeat CPU  0 instructions:   11000000 cycles:  103243541 heartbeat IPC: 0.10572 cumulative IPC: 0.10572 (Simulation time: 0 hr 0 min 28 sec) 
Heartbeat CPU  0 instructions:   12000000 cycles:  112702138 heartbeat IPC: 0.10572 cumulative IPC: 0.10572 (Simulation time: 0 hr 0 min 30 sec) 
Heartbeat CPU  0 instructions:   13000000 cycles:  122161289 heartbeat IPC: 0.10572 cumulative IPC: 0.10572 (Simulation time: 0 hr 0 min 33 sec) 
Heartbeat CPU  0 instructions:   14000000 cycles:  131619824 heartbeat IPC: 0.10572 cumulative IPC: 0.10572 (Simulation time: 0 hr 0 min 35 sec) 
Heartbeat CPU  0 instructions:   15000000 cycles:  141078353 heartbeat IPC: 0.10572 cumulative IPC: 0.10572 (Simulation time: 0 hr 0 min 38 sec) 
Heartbeat CPU  0 instructions:   16000000 cycles:  150536926 heartbeat IPC: 0.10572 cumulative IPC: 0.10572 (Simulation time: 0 hr 0 min 40 sec) 
Heartbeat CPU  0 instructions:   17000000 cycles:  159995552 heartbeat IPC: 0.10572 cumulative IPC: 0.10572 (Simulation time: 0 hr 0 min 43 sec) 
Heartbeat CPU  0 instructions:   18000000 cycles:  169454027 heartbeat IPC: 0.10573 cumulative IPC: 0.10572 (Simulation time: 0 hr 0 min 45 sec) 
Heartbeat CPU  0 instructions:   19000000 cycles:  178912902 heartbeat IPC: 0.10572 cumulative IPC: 0.10572 (Simulation time: 0 hr 0 min 48 sec) 
Heartbeat CPU  0 instructions:   20000000 cycles:  188371729 heartbeat IPC: 0.10572 cumulative IPC: 0.10572 (Simulation time: 0 hr 0 min 51 sec) 
Heartbeat CPU  0 instructions:   21000000 cycles:  197830230 heartbeat IPC: 0.10572 cumulative IPC: 0.10572 (Simulation time: 0 hr 0 min 54 sec) 
Heartbeat CPU  0 instructions:   22000000 cycles:  207289033 heartbeat IPC: 0.10572 cumulative IPC: 0.10572 (Simulation time: 0 hr 0 min 57 sec) 
Heartbeat CPU  0 instructions:   23000000 cycles:  216747797 heartbeat IPC: 0.10572 cumulative IPC: 0.10572 (Simulation time: 0 hr 1 min 0 sec) 
Heartbeat CPU  0 instructions:   24000000 cycles:  226206226 heartbeat IPC: 0.10573 cumulative IPC: 0.10572 (Simulation time: 0 hr 1 min 3 sec) 
Heartbeat CPU  0 instructions:   25000000 cycles:  235665172 heartbeat IPC: 0.10572 cumulative IPC: 0.10572 (Simulation time: 0 hr 1 min 6 sec) 
Heartbeat CPU  0 instructions:   26000000 cycles:  245123620 heartbeat IPC: 0.10573 cumulative IPC: 0.10572 (Simulation time: 0 hr 1 min 9 sec) 
Heartbeat CPU  0 instructions:   27000000 cycles:  254583063 heartbeat IPC: 0.10571 cumulative IPC: 0.10572 (Simulation time: 0 hr 1 min 13 sec) 
Heartbeat CPU  0 instructions:   28000000 cycles:  264041289 heartbeat IPC: 0.10573 cumulative IPC: 0.10572 (Simulation time: 0 hr 1 min 16 sec) 
Heartbeat CPU  0 instructions:   29000000 cycles:  273500075 heartbeat IPC: 0.10572 cumulative IPC: 0.10572 (Simulation time: 0 hr 1 min 19 sec) 
Heartbeat CPU  0 instructions:   30000000 cycles:  282958359 heartbeat IPC: 0.10573 cumulative IPC: 0.10572 (Simulation time: 0 hr 1 min 22 sec) 
Heartbeat CPU  0 instructions:   31000000 cycles:  292417093 heartbeat IPC: 0.10572 cumulative IPC: 0.10572 (Simulation time: 0 hr 1 min 25 sec) 
Heartbeat CPU  0 instructions:   32000000 cycles:  301875496 heartbeat IPC: 0.10573 cumulative IPC: 0.10572 (Simulation time: 0 hr 1 min 28 sec) 
Heartbeat CPU  0 instructions:   33000000 cycles:  311334613 heartbeat IPC: 0.10572 cumulative IPC: 0.10572 (Simulation time: 0 hr 1 min 31 sec) 
Heartbeat CPU  0 instructions:   34000000 cycles:  320793198 heartbeat IPC: 0.10572 cumulative IPC: 0.10572 (Simulation time: 0 hr 1 min 34 sec) 
Heartbeat CPU  0 instructions:   35000000 cycles:  330251972 heartbeat IPC: 0.10572 cumulative IPC: 0.10572 (Simulation time: 0 hr 1 min 37 sec) 
Heartbeat CPU  0 instructions:   36000000 cycles:  339710520 heartbeat IPC: 0.10572 cumulative IPC: 0.10572 (Simulation time: 0 hr 1 min 40 sec) 
Heartbeat CPU  0 instructions:   37000000 cycles:  349169284 heartbeat IPC: 0.10572 cumulative IPC: 0.10572 (Simulation time: 0 hr 1 min 43 sec) 
Heartbeat CPU  0 instructions:   38000000 cycles:  358627715 heartbeat IPC: 0.10573 cumulative IPC: 0.10572 (Simulation time: 0 hr 1 min 46 sec) 
Heartbeat CPU  0 instructions:   39000000 cycles:  368086817 heartbeat IPC: 0.10572 cumulative IPC: 0.10572 (Simulation time: 0 hr 1 min 49 sec) 
Heartbeat CPU  0 instructions:   40000000 cycles:  377545082 heartbeat IPC: 0.10573 cumulative IPC: 0.10572 (Simulation time: 0 hr 1 min 52 sec) 
Heartbeat CPU  0 instructions:   41000000 cycles:  387004477 heartbeat IPC: 0.10572 cumulative IPC: 0.10572 (Simulation time: 0 hr 1 min 55 sec) 
Heartbeat CPU  0 instructions:   42000000 cycles:  396462763 heartbeat IPC: 0.10573 cumulative IPC: 0.10572 (Simulation time: 0 hr 1 min 58 sec) 
Heartbeat CPU  0 instructions:   43000000 cycles:  405921606 heartbeat IPC: 0.10572 cumulative IPC: 0.10572 (Simulation time: 0 hr 2 min 1 sec) 
Heartbeat CPU  0 instructions:   44000000 cycles:  415379954 heartbeat IPC: 0.10573 cumulative IPC: 0.10572 (Simulation time: 0 hr 2 min 4 sec) 
Heartbeat CPU  0 instructions:   45000000 cycles:  424838707 heartbeat IPC: 0.10572 cumulative IPC: 0.10572 (Simulation time: 0 hr 2 min 7 sec) 
Heartbeat CPU  0 instructions:   46000000 cycles:  434297027 heartbeat IPC: 0.10573 cumulative IPC: 0.10572 (Simulation time: 0 hr 2 min 9 sec) 
Heartbeat CPU  0 instructions:   47000000 cycles:  443756041 heartbeat IPC: 0.10572 cumulative IPC: 0.10572 (Simulation time: 0 hr 2 min 12 sec) 
Heartbeat CPU  0 instructions:   48000000 cycles:  453214434 heartbeat IPC: 0.10573 cumulative IPC: 0.10572 (Simulation time: 0 hr 2 min 15 sec) 
Heartbeat CPU  0 instructions:   49000000 cycles:  462673508 heartbeat IPC: 0.10572 cumulative IPC: 0.10572 (Simulation time: 0 hr 2 min 17 sec) 
Heartbeat CPU  0 instructions:   50000000 cycles:  472132140 heartbeat IPC: 0.10572 cumulative IPC: 0.10572 (Simulation time: 0 hr 2 min 20 sec) 
Finished CPU 0 instructions: 50000000 cycles: 472938923 cumulative IPC: 0.10572 (Simulation time: 0 hr 2 min 20 sec) 

ChampSim completed all CPUs

[ROI Statistics]
Core_0_instructions 50000000
Core_0_cycles 472938923
Core_0_IPC 0.10572

Core_0_branch_prediction_accuracy 99.69526
Core_0_branch_MPKI 0.58520
Core_0_average_ROB_occupancy_at_mispredict 254.96090

Core_0_L1D_total_access 19146772
Core_0_L1D_total_hit 19143915
Core_0_L1D_total_miss 2857
Core_0_L1D_loads 10777678
Core_0_L1D_load_hit 10777554
Core_0_L1D_load_miss 124
Core_0_L1D_RFOs 8369094
Core_0_L1D_RFO_hit 8366361
Core_0_L1D_RFO_miss 2733
Core_0_L1D_prefetches 0
Core_0_L1D_prefetch_hit 0
Core_0_L1D_prefetch_miss 0
Core_0_L1D_writebacks 0
Core_0_L1D_writeback_hit 0
Core_0_L1D_writeback_miss 0
Core_0_L1D_prefetch_requested 0
Core_0_L1D_prefetch_dropped 0
Core_0_L1D_prefetch_issued 0
Core_0_L1D_prefetch_filled 0
Core_0_L1D_prefetch_useful 0
Core_0_L1D_prefetch_useless 0
Core_0_L1D_prefetch_late 0
Core_0_L1D_average_miss_latency 70.83199

Core_0_L1D_rq_access 10777678
Core_0_L1D_rq_forward 0
Core_0_L1D_rq_merged 0
Core_0_L1D_rq_to_cache 10777678
Core_0_L1D_rq_full 0

Core_0_L1D_wq_access 8369093
Core_0_L1D_wq_forward 0
Core_0_L1D_wq_merged 0
Core_0_L1D_wq_to_cache 8369093
Core_0_L1D_wq_full 0

Core_0_L1D_pq_access 0
Core_0_L1D_pq_forward 0
Core_0_L1D_pq_merged 0
Core_0_L1D_pq_to_cache 0
Core_0_L1D_pq_full 0

Core_0_L1D_acc_epochs 461970
Core_0_L1D_acc_level_0 461970
Core_0_L1D_acc_level_1 0
Core_0_L1D_acc_level_2 0
Core_0_L1D_acc_level_3 0
Core_0_L1D_acc_level_4 0
Core_0_L1D_acc_level_5 0
Core_0_L1D_acc_level_6 0
Core_0_L1D_acc_level_7 0
Core_0_L1D_acc_level_8 0
Core_0_L1D_acc_level_9 0

Core_0_L1I_total_access 43544888
Core_0_L1I_total_hit 43544884
Core_0_L1I_total_miss 4
Core_0_L1I_loads 43544888
Core_0_L1I_load_hit 43544884
Core_0_L1I_load_miss 4
Core_0_L1I_RFOs 0
Core_0_L1I_RFO_hit 0
Core_0_L1I_RFO_miss 0
Core_0_L1I_prefetches 0
Core_0_L1I_prefetch_hit 0
Core_0_L1I_prefetch_miss 0
Core_0_L1I_writebacks 0
Core_0_L1I_writeback_hit 0
Core_0_L1I_writeback_miss 0
Core_0_L1I_prefetch_requested 0
Core_0_L1I_prefetch_dropped 0
Core_0_L1I_prefetch_issued 0
Core_0_L1I_prefetch_filled 0
Core_0_L1I_prefetch_useful 0
Core_0_L1I_prefetch_useless 0
Core_0_L1I_prefetch_late 0
Core_0_L1I_average_miss_latency 68.00000

Core_0_L1I_rq_access 50000114
Core_0_L1I_rq_forward 0
Core_0_L1I_rq_merged 6455226
Core_0_L1I_rq_to_cache 43544888
Core_0_L1I_rq_full 0

Core_0_L1I_wq_access 0
Core_0_L1I_wq_forward 0
Core_0_L1I_wq_merged 0
Core_0_L1I_wq_to_cache 0
Core_0_L1I_wq_full 0

Core_0_L1I_pq_access 0
Core_0_L1I_pq_forward 0
Core_0_L1I_pq_merged 0
Core_0_L1I_pq_to_cache 0
Core_0_L1I_pq_full 0

Core_0_L1I_acc_epochs 461970
Core_0_L1I_acc_level_0 461970
Core_0_L1I_acc_level_1 0
Core_0_L1I_acc_level_2 0
Core_0_L1I_acc_level_3 0
Core_0_L1I_acc_level_4 0
Core_0_L1I_acc_level_5 0
Core_0_L1I_acc_level_6 0
Core_0_L1I_acc_level_7 0
Core_0_L1I_acc_level_8 0
Core_0_L1I_acc_level_9 0

Core_0_L2C_total_access 5122
Core_0_L2C_total_hit 2260
Core_0_L2C_total_miss 2862
Core_0_L2C_loads 128
Core_0_L2C_load_hit 83
Core_0_L2C_load_miss 45
Core_0_L2C_RFOs 2733
Core_0_L2C_RFO_hit 0
Core_0_L2C_RFO_miss 2733
Core_0_L2C_prefetches 90
Core_0_L2C_prefetch_hit 6
Core_0_L2C_prefetch_miss 84
Core_0_L2C_writebacks 2171
Core_0_L2C_writeback_hit 2171
Core_0_L2C_writeback_miss 0
Core_0_L2C_prefetch_requested 382
Core_0_L2C_prefetch_dropped 0
Core_0_L2C_prefetch_issued 382
Core_0_L2C_prefetch_filled 319
Core_0_L2C_prefetch_useful 179
Core_0_L2C_prefetch_useless 0
Core_0_L2C_prefetch_late 4
Core_0_L2C_average_miss_latency 57.63802

Core_0_L2C_rq_access 2861
Core_0_L2C_rq_forward 0
Core_0_L2C_rq_merged 0
Core_0_L2C_rq_to_cache 2861
Core_0_L2C_rq_full 0

Core_0_L2C_wq_access 2171
Core_0_L2C_wq_forward 0
Core_0_L2C_wq_merged 0
Core_0_L2C_wq_to_cache 2171
Core_0_L2C_wq_full 0

Core_0_L2C_pq_access 382
Core_0_L2C_pq_forward 0
Core_0_L2C_pq_merged 9
Core_0_L2C_pq_to_cache 373
Core_0_L2C_pq_full 0

Core_0_L2C_acc_epochs 461970
Core_0_L2C_acc_level_0 461934
Core_0_L2C_acc_level_1 15
Core_0_L2C_acc_level_2 16
Core_0_L2C_acc_level_3 1
Core_0_L2C_acc_level_4 1
Core_0_L2C_acc_level_5 2
Core_0_L2C_acc_level_6 1
Core_0_L2C_acc_level_7 0
Core_0_L2C_acc_level_8 0
Core_0_L2C_acc_level_9 0

Core_0_LLC_total_access 2862
Core_0_LLC_total_hit 0
Core_0_LLC_total_miss 2862
Core_0_LLC_loads 45
Core_0_LLC_load_hit 0
Core_0_LLC_load_miss 45
Core_0_LLC_RFOs 2733
Core_0_LLC_RFO_hit 0
Core_0_LLC_RFO_miss 2733
Core_0_LLC_prefetches 84
Core_0_LLC_prefetch_hit 0
Core_0_LLC_prefetch_miss 84
Core_0_LLC_writebacks 0
Core_0_LLC_writeback_hit 0
Core_0_LLC_writeback_miss 0
Core_0_LLC_prefetch_requested 0
Core_0_LLC_prefetch_dropped 0
Core_0_LLC_prefetch_issued 0
Core_0_LLC_prefetch_filled 323
Core_0_LLC_prefetch_useful 0
Core_0_LLC_prefetch_useless 0
Core_0_LLC_prefetch_late 0
Core_0_LLC_average_miss_latency 27.63802

Core_0_LLC_rq_access 2778
Core_0_LLC_rq_forward 0
Core_0_LLC_rq_merged 0
Core_0_LLC_rq_to_cache 2778
Core_0_LLC_rq_full 0

Core_0_LLC_wq_access 0
Core_0_LLC_wq_forward 0
Core_0_LLC_wq_merged 0
Core_0_LLC_wq_to_cache 0
Core_0_LLC_wq_full 0

Core_0_LLC_pq_access 323
Core_0_LLC_pq_forward 0
Core_0_LLC_pq_merged 0
Core_0_LLC_pq_to_cache 323
Core_0_LLC_pq_full 0

Core_0_LLC_acc_epochs 461991
Core_0_LLC_acc_level_0 461991
Core_0_LLC_acc_level_1 0
Core_0_LLC_acc_level_2 0
Core_0_LLC_acc_level_3 0
Core_0_LLC_acc_level_4 0
Core_0_LLC_acc_level_5 0
Core_0_LLC_acc_level_6 0
Core_0_LLC_acc_level_7 0
Core_0_LLC_acc_level_8 0
Core_0_LLC_acc_level_9 0

Core_0_major_page_fault 0
Core_0_minor_page_fault 261

-------- Custom final stats --------
Size of queue : 0
Size of SHT : 58
Size of AST : 58
Channel_0_RQ_row_buffer_hit 2569
Channel_0_RQ_row_buffer_miss 293
Channel_0_WQ_row_buffer_hit 0
Channel_0_WQ_row_buffer_miss 0
Channel_0_WQ_full 0
Channel_0_dbus_congested 0

avg_congested_cycle 0

DRAM_bw_pochs 1847961
DRAM_bw_level_0 1847961
DRAM_bw_level_1 0
DRAM_bw_level_2 0
DRAM_bw_level_3 0
