*************************************************
   ChampSim Multicore Out-of-Order Simulator
   Last compiled: Dec  3 2023 14:43:31
*************************************************
parsing config file: /home/pcineverdies/Projects/RM4ES/Prefetcher-Research-Project/config/sp_ghb.ini

trace_0 /home/pcineverdies/Projects/RM4ES/Prefetcher-Research-Project/traces/MNIST_NN.champsimtrace.xz
adding L2C_PREFETCHER: SP GHB
Initialize SHIP state
warmup_instructions 100000
simulation_instructions 50000000
champsim_seed 646
measure_ipc 0
measure_ipc_epoch 1000
measure_dram_bw 1
measure_dram_bw_epoch 256
measure_cache_acc 1
measure_cache_acc_epoch 1024
l1d_perfect 0
l2c_perfect 0
llc_perfect 0
l1d_semi_perfect 0
l2c_semi_perfect 0
llc_semi_perfect 0
semi_perfect_cache_page_buffer_size 64

num_cpus 1
cpu_freq 550
dram_io_freq 2400
page_size 4096
block_size 64
max_read_per_cycle 8
max_fill_per_cycle 1
dram_channels 1
log2_dram_channels 0
dram_ranks 1
dram_banks 8
dram_rows 65536
dram_columns 128
dram_row_size 8
dram_size 4096
dram_pages 1048576

fetch_width 2
decode_width 2
exec_width 2
lq_width 1
sq_width 1
retire_width 5
scheduler_size 1
branch_mispredict_penalty 1
rob_size 256
lq_size 72
sq_size 56
num_instr_destinations_sparc 4
num_instr_destinations 2
num_instr_sources 4

itlb_set 1024
itlb_way 1024
itlb_rq_size 16
itlb_wq_size 16
itlb_pq_size 0
itlb_mshr_size 8
itlb_latency 0

dtlb_set 1024
dtlb_way 1024
dtlb_rq_size 32
dtlb_wq_size 32
dtlb_pq_size 0
dtlb_mshr_size 8
dtlb_latency 1

stlb_set 1024
stlb_way 1024
stlb_rq_size 32
stlb_wq_size 32
stlb_pq_size 0
stlb_mshr_size 16
stlb_latency 0

l1i_size 32
l1i_set 64
l1i_way 8
l1i_rq_size 64
l1i_wq_size 64
l1i_pq_size 32
l1i_mshr_size 8
l1i_latency 4

l1d_size 48
l1d_set 64
l1d_way 12
l1d_rq_size 64
l1d_wq_size 64
l1d_pq_size 8
l1d_mshr_size 16
l1d_latency 5

l2c_size 512
l2c_set 1024
l2c_way 8
l2c_rq_size 32
l2c_wq_size 32
l2c_pq_size 16
l2c_mshr_size 32
l2c_latency 10

llc_size 2048
llc_set 2048
llc_way 16
llc_rq_size 32
llc_wq_size 32
llc_pq_size 32
llc_mshr_size 64
llc_latency 20

dram_channel_width 8
dram_wq_size 64
dram_rq_size 64
tRP 15
tRCD 15
tCAS 12.5
dram_dbus_turn_around_time 4
dram_write_high_wm 56
dram_write_low_wm 48
min_dram_writes_per_switch 16
dram_mtps 2400
dram_dbus_return_time 1



Warmup complete CPU  0 instructions:     100001 cycles:     136632 (Simulation time: 0 hr 0 min 0 sec) 

Heartbeat CPU  0 instructions:    1000000 cycles:    9065877 heartbeat IPC: 0.11030 cumulative IPC: 0.10079 (Simulation time: 0 hr 0 min 3 sec) 
Heartbeat CPU  0 instructions:    2000000 cycles:   19012557 heartbeat IPC: 0.10054 cumulative IPC: 0.10066 (Simulation time: 0 hr 0 min 5 sec) 
Heartbeat CPU  0 instructions:    3000000 cycles:   28659263 heartbeat IPC: 0.10366 cumulative IPC: 0.10167 (Simulation time: 0 hr 0 min 8 sec) 
Heartbeat CPU  0 instructions:    4000000 cycles:   38637455 heartbeat IPC: 0.10022 cumulative IPC: 0.10130 (Simulation time: 0 hr 0 min 11 sec) 
Heartbeat CPU  0 instructions:    5000000 cycles:   48786841 heartbeat IPC: 0.09853 cumulative IPC: 0.10072 (Simulation time: 0 hr 0 min 14 sec) 
Heartbeat CPU  0 instructions:    6000000 cycles:   58936253 heartbeat IPC: 0.09853 cumulative IPC: 0.10034 (Simulation time: 0 hr 0 min 17 sec) 
Heartbeat CPU  0 instructions:    7000000 cycles:   69085585 heartbeat IPC: 0.09853 cumulative IPC: 0.10007 (Simulation time: 0 hr 0 min 21 sec) 
Heartbeat CPU  0 instructions:    8000000 cycles:   79234928 heartbeat IPC: 0.09853 cumulative IPC: 0.09988 (Simulation time: 0 hr 0 min 24 sec) 
Heartbeat CPU  0 instructions:    9000000 cycles:   89384162 heartbeat IPC: 0.09853 cumulative IPC: 0.09972 (Simulation time: 0 hr 0 min 27 sec) 
Heartbeat CPU  0 instructions:   10000000 cycles:   99533345 heartbeat IPC: 0.09853 cumulative IPC: 0.09960 (Simulation time: 0 hr 0 min 31 sec) 
Heartbeat CPU  0 instructions:   11000000 cycles:  109682578 heartbeat IPC: 0.09853 cumulative IPC: 0.09950 (Simulation time: 0 hr 0 min 34 sec) 
Heartbeat CPU  0 instructions:   12000000 cycles:  119914815 heartbeat IPC: 0.09773 cumulative IPC: 0.09935 (Simulation time: 0 hr 0 min 37 sec) 
Heartbeat CPU  0 instructions:   13000000 cycles:  130551964 heartbeat IPC: 0.09401 cumulative IPC: 0.09891 (Simulation time: 0 hr 0 min 41 sec) 
Heartbeat CPU  0 instructions:   14000000 cycles:  141188419 heartbeat IPC: 0.09402 cumulative IPC: 0.09855 (Simulation time: 0 hr 0 min 44 sec) 
Heartbeat CPU  0 instructions:   15000000 cycles:  151824545 heartbeat IPC: 0.09402 cumulative IPC: 0.09823 (Simulation time: 0 hr 0 min 47 sec) 
Heartbeat CPU  0 instructions:   16000000 cycles:  162391638 heartbeat IPC: 0.09463 cumulative IPC: 0.09799 (Simulation time: 0 hr 0 min 51 sec) 
Heartbeat CPU  0 instructions:   17000000 cycles:  173027982 heartbeat IPC: 0.09402 cumulative IPC: 0.09775 (Simulation time: 0 hr 0 min 54 sec) 
Heartbeat CPU  0 instructions:   18000000 cycles:  183664303 heartbeat IPC: 0.09402 cumulative IPC: 0.09753 (Simulation time: 0 hr 0 min 57 sec) 
Heartbeat CPU  0 instructions:   19000000 cycles:  194229903 heartbeat IPC: 0.09465 cumulative IPC: 0.09738 (Simulation time: 0 hr 1 min 0 sec) 
Heartbeat CPU  0 instructions:   20000000 cycles:  204866479 heartbeat IPC: 0.09402 cumulative IPC: 0.09720 (Simulation time: 0 hr 1 min 4 sec) 
Heartbeat CPU  0 instructions:   21000000 cycles:  215502815 heartbeat IPC: 0.09402 cumulative IPC: 0.09704 (Simulation time: 0 hr 1 min 7 sec) 
Heartbeat CPU  0 instructions:   22000000 cycles:  226138943 heartbeat IPC: 0.09402 cumulative IPC: 0.09690 (Simulation time: 0 hr 1 min 10 sec) 
Heartbeat CPU  0 instructions:   23000000 cycles:  236704852 heartbeat IPC: 0.09464 cumulative IPC: 0.09680 (Simulation time: 0 hr 1 min 13 sec) 
Heartbeat CPU  0 instructions:   24000000 cycles:  247341083 heartbeat IPC: 0.09402 cumulative IPC: 0.09668 (Simulation time: 0 hr 1 min 17 sec) 
Heartbeat CPU  0 instructions:   25000000 cycles:  257977391 heartbeat IPC: 0.09402 cumulative IPC: 0.09657 (Simulation time: 0 hr 1 min 20 sec) 
Heartbeat CPU  0 instructions:   26000000 cycles:  268542941 heartbeat IPC: 0.09465 cumulative IPC: 0.09650 (Simulation time: 0 hr 1 min 24 sec) 
Heartbeat CPU  0 instructions:   27000000 cycles:  279179525 heartbeat IPC: 0.09402 cumulative IPC: 0.09640 (Simulation time: 0 hr 1 min 28 sec) 
Heartbeat CPU  0 instructions:   28000000 cycles:  289815840 heartbeat IPC: 0.09402 cumulative IPC: 0.09631 (Simulation time: 0 hr 1 min 31 sec) 
Heartbeat CPU  0 instructions:   29000000 cycles:  300447179 heartbeat IPC: 0.09406 cumulative IPC: 0.09623 (Simulation time: 0 hr 1 min 34 sec) 
Heartbeat CPU  0 instructions:   30000000 cycles:  311017856 heartbeat IPC: 0.09460 cumulative IPC: 0.09618 (Simulation time: 0 hr 1 min 37 sec) 
Heartbeat CPU  0 instructions:   31000000 cycles:  321654066 heartbeat IPC: 0.09402 cumulative IPC: 0.09611 (Simulation time: 0 hr 1 min 40 sec) 
Heartbeat CPU  0 instructions:   32000000 cycles:  332290387 heartbeat IPC: 0.09402 cumulative IPC: 0.09604 (Simulation time: 0 hr 1 min 43 sec) 
Heartbeat CPU  0 instructions:   33000000 cycles:  342855895 heartbeat IPC: 0.09465 cumulative IPC: 0.09600 (Simulation time: 0 hr 1 min 46 sec) 
Heartbeat CPU  0 instructions:   34000000 cycles:  353492465 heartbeat IPC: 0.09402 cumulative IPC: 0.09594 (Simulation time: 0 hr 1 min 49 sec) 
Heartbeat CPU  0 instructions:   35000000 cycles:  364128809 heartbeat IPC: 0.09402 cumulative IPC: 0.09588 (Simulation time: 0 hr 1 min 51 sec) 
Heartbeat CPU  0 instructions:   36000000 cycles:  374728356 heartbeat IPC: 0.09434 cumulative IPC: 0.09584 (Simulation time: 0 hr 1 min 54 sec) 
Heartbeat CPU  0 instructions:   37000000 cycles:  385330789 heartbeat IPC: 0.09432 cumulative IPC: 0.09580 (Simulation time: 0 hr 1 min 57 sec) 
Heartbeat CPU  0 instructions:   38000000 cycles:  395967028 heartbeat IPC: 0.09402 cumulative IPC: 0.09575 (Simulation time: 0 hr 1 min 59 sec) 
Heartbeat CPU  0 instructions:   39000000 cycles:  406603349 heartbeat IPC: 0.09402 cumulative IPC: 0.09570 (Simulation time: 0 hr 2 min 2 sec) 
Heartbeat CPU  0 instructions:   40000000 cycles:  417168941 heartbeat IPC: 0.09465 cumulative IPC: 0.09568 (Simulation time: 0 hr 2 min 4 sec) 
Heartbeat CPU  0 instructions:   41000000 cycles:  427805442 heartbeat IPC: 0.09402 cumulative IPC: 0.09563 (Simulation time: 0 hr 2 min 7 sec) 
Heartbeat CPU  0 instructions:   42000000 cycles:  438441748 heartbeat IPC: 0.09402 cumulative IPC: 0.09560 (Simulation time: 0 hr 2 min 9 sec) 
Heartbeat CPU  0 instructions:   43000000 cycles:  449007243 heartbeat IPC: 0.09465 cumulative IPC: 0.09557 (Simulation time: 0 hr 2 min 12 sec) 
Heartbeat CPU  0 instructions:   44000000 cycles:  459643759 heartbeat IPC: 0.09402 cumulative IPC: 0.09554 (Simulation time: 0 hr 2 min 14 sec) 
Heartbeat CPU  0 instructions:   45000000 cycles:  470279960 heartbeat IPC: 0.09402 cumulative IPC: 0.09550 (Simulation time: 0 hr 2 min 17 sec) 
Heartbeat CPU  0 instructions:   46000000 cycles:  480916297 heartbeat IPC: 0.09402 cumulative IPC: 0.09547 (Simulation time: 0 hr 2 min 20 sec) 
Heartbeat CPU  0 instructions:   47000000 cycles:  491481866 heartbeat IPC: 0.09465 cumulative IPC: 0.09545 (Simulation time: 0 hr 2 min 22 sec) 
Heartbeat CPU  0 instructions:   48000000 cycles:  502118374 heartbeat IPC: 0.09402 cumulative IPC: 0.09542 (Simulation time: 0 hr 2 min 25 sec) 
Heartbeat CPU  0 instructions:   49000000 cycles:  512754689 heartbeat IPC: 0.09402 cumulative IPC: 0.09539 (Simulation time: 0 hr 2 min 28 sec) 
Heartbeat CPU  0 instructions:   50000000 cycles:  523320191 heartbeat IPC: 0.09465 cumulative IPC: 0.09538 (Simulation time: 0 hr 2 min 30 sec) 
Finished CPU 0 instructions: 50000000 cycles: 524247154 cumulative IPC: 0.09537 (Simulation time: 0 hr 2 min 31 sec) 

ChampSim completed all CPUs

[ROI Statistics]
Core_0_instructions 50000000
Core_0_cycles 524247154
Core_0_IPC 0.09537

Core_0_branch_prediction_accuracy 99.09397
Core_0_branch_MPKI 0.54578
Core_0_average_ROB_occupancy_at_mispredict 167.71978

Core_0_L1D_total_access 23765161
Core_0_L1D_total_hit 23595411
Core_0_L1D_total_miss 169750
Core_0_L1D_loads 19673481
Core_0_L1D_load_hit 19510421
Core_0_L1D_load_miss 163060
Core_0_L1D_RFOs 4091680
Core_0_L1D_RFO_hit 4084990
Core_0_L1D_RFO_miss 6690
Core_0_L1D_prefetches 0
Core_0_L1D_prefetch_hit 0
Core_0_L1D_prefetch_miss 0
Core_0_L1D_writebacks 0
Core_0_L1D_writeback_hit 0
Core_0_L1D_writeback_miss 0
Core_0_L1D_prefetch_requested 0
Core_0_L1D_prefetch_dropped 0
Core_0_L1D_prefetch_issued 0
Core_0_L1D_prefetch_filled 0
Core_0_L1D_prefetch_useful 0
Core_0_L1D_prefetch_useless 0
Core_0_L1D_prefetch_late 0
Core_0_L1D_average_miss_latency 20.26871

Core_0_L1D_rq_access 19673499
Core_0_L1D_rq_forward 0
Core_0_L1D_rq_merged 0
Core_0_L1D_rq_to_cache 19673499
Core_0_L1D_rq_full 0

Core_0_L1D_wq_access 4093412
Core_0_L1D_wq_forward 0
Core_0_L1D_wq_merged 0
Core_0_L1D_wq_to_cache 4093412
Core_0_L1D_wq_full 0

Core_0_L1D_pq_access 0
Core_0_L1D_pq_forward 0
Core_0_L1D_pq_merged 0
Core_0_L1D_pq_to_cache 0
Core_0_L1D_pq_full 0

Core_0_L1D_acc_epochs 512015
Core_0_L1D_acc_level_0 512015
Core_0_L1D_acc_level_1 0
Core_0_L1D_acc_level_2 0
Core_0_L1D_acc_level_3 0
Core_0_L1D_acc_level_4 0
Core_0_L1D_acc_level_5 0
Core_0_L1D_acc_level_6 0
Core_0_L1D_acc_level_7 0
Core_0_L1D_acc_level_8 0
Core_0_L1D_acc_level_9 0

Core_0_L1I_total_access 45981226
Core_0_L1I_total_hit 45978924
Core_0_L1I_total_miss 2302
Core_0_L1I_loads 45981226
Core_0_L1I_load_hit 45978924
Core_0_L1I_load_miss 2302
Core_0_L1I_RFOs 0
Core_0_L1I_RFO_hit 0
Core_0_L1I_RFO_miss 0
Core_0_L1I_prefetches 0
Core_0_L1I_prefetch_hit 0
Core_0_L1I_prefetch_miss 0
Core_0_L1I_writebacks 0
Core_0_L1I_writeback_hit 0
Core_0_L1I_writeback_miss 0
Core_0_L1I_prefetch_requested 0
Core_0_L1I_prefetch_dropped 0
Core_0_L1I_prefetch_issued 0
Core_0_L1I_prefetch_filled 0
Core_0_L1I_prefetch_useful 0
Core_0_L1I_prefetch_useless 0
Core_0_L1I_prefetch_late 0
Core_0_L1I_average_miss_latency 80.45917

Core_0_L1I_rq_access 50000187
Core_0_L1I_rq_forward 0
Core_0_L1I_rq_merged 4018225
Core_0_L1I_rq_to_cache 45981962
Core_0_L1I_rq_full 0

Core_0_L1I_wq_access 0
Core_0_L1I_wq_forward 0
Core_0_L1I_wq_merged 0
Core_0_L1I_wq_to_cache 0
Core_0_L1I_wq_full 0

Core_0_L1I_pq_access 0
Core_0_L1I_pq_forward 0
Core_0_L1I_pq_merged 0
Core_0_L1I_pq_to_cache 0
Core_0_L1I_pq_full 0

Core_0_L1I_acc_epochs 512015
Core_0_L1I_acc_level_0 512015
Core_0_L1I_acc_level_1 0
Core_0_L1I_acc_level_2 0
Core_0_L1I_acc_level_3 0
Core_0_L1I_acc_level_4 0
Core_0_L1I_acc_level_5 0
Core_0_L1I_acc_level_6 0
Core_0_L1I_acc_level_7 0
Core_0_L1I_acc_level_8 0
Core_0_L1I_acc_level_9 0

Core_0_L2C_total_access 327956
Core_0_L2C_total_hit 164098
Core_0_L2C_total_miss 163858
Core_0_L2C_loads 165362
Core_0_L2C_load_hit 153577
Core_0_L2C_load_miss 11785
Core_0_L2C_RFOs 6690
Core_0_L2C_RFO_hit 1761
Core_0_L2C_RFO_miss 4929
Core_0_L2C_prefetches 148243
Core_0_L2C_prefetch_hit 1110
Core_0_L2C_prefetch_miss 147133
Core_0_L2C_writebacks 7661
Core_0_L2C_writeback_hit 7650
Core_0_L2C_writeback_miss 11
Core_0_L2C_prefetch_requested 148396
Core_0_L2C_prefetch_dropped 0
Core_0_L2C_prefetch_issued 148396
Core_0_L2C_prefetch_filled 147280
Core_0_L2C_prefetch_useful 147050
Core_0_L2C_prefetch_useless 223
Core_0_L2C_prefetch_late 2
Core_0_L2C_average_miss_latency 35.81511

Core_0_L2C_rq_access 172052
Core_0_L2C_rq_forward 0
Core_0_L2C_rq_merged 0
Core_0_L2C_rq_to_cache 172052
Core_0_L2C_rq_full 0

Core_0_L2C_wq_access 7661
Core_0_L2C_wq_forward 0
Core_0_L2C_wq_merged 0
Core_0_L2C_wq_to_cache 7661
Core_0_L2C_wq_full 0

Core_0_L2C_pq_access 148396
Core_0_L2C_pq_forward 0
Core_0_L2C_pq_merged 0
Core_0_L2C_pq_to_cache 148396
Core_0_L2C_pq_full 0

Core_0_L2C_acc_epochs 512015
Core_0_L2C_acc_level_0 137243
Core_0_L2C_acc_level_1 99387
Core_0_L2C_acc_level_2 99393
Core_0_L2C_acc_level_3 36343
Core_0_L2C_acc_level_4 1075
Core_0_L2C_acc_level_5 99354
Core_0_L2C_acc_level_6 36336
Core_0_L2C_acc_level_7 1050
Core_0_L2C_acc_level_8 1099
Core_0_L2C_acc_level_9 735

Core_0_LLC_total_access 169992
Core_0_LLC_total_hit 140215
Core_0_LLC_total_miss 29777
Core_0_LLC_loads 11783
Core_0_LLC_load_hit 796
Core_0_LLC_load_miss 10987
Core_0_LLC_RFOs 4929
Core_0_LLC_RFO_hit 1244
Core_0_LLC_RFO_miss 3685
Core_0_LLC_prefetches 147135
Core_0_LLC_prefetch_hit 132030
Core_0_LLC_prefetch_miss 15105
Core_0_LLC_writebacks 6145
Core_0_LLC_writeback_hit 6145
Core_0_LLC_writeback_miss 0
Core_0_LLC_prefetch_requested 0
Core_0_LLC_prefetch_dropped 0
Core_0_LLC_prefetch_issued 0
Core_0_LLC_prefetch_filled 15252
Core_0_LLC_prefetch_useful 33
Core_0_LLC_prefetch_useless 142
Core_0_LLC_prefetch_late 0
Core_0_LLC_average_miss_latency 31.89650

Core_0_LLC_rq_access 16712
Core_0_LLC_rq_forward 0
Core_0_LLC_rq_merged 0
Core_0_LLC_rq_to_cache 16712
Core_0_LLC_rq_full 0

Core_0_LLC_wq_access 6145
Core_0_LLC_wq_forward 0
Core_0_LLC_wq_merged 0
Core_0_LLC_wq_to_cache 6145
Core_0_LLC_wq_full 0

Core_0_LLC_pq_access 147282
Core_0_LLC_pq_forward 0
Core_0_LLC_pq_merged 0
Core_0_LLC_pq_to_cache 147282
Core_0_LLC_pq_full 0

Core_0_LLC_acc_epochs 512094
Core_0_LLC_acc_level_0 512094
Core_0_LLC_acc_level_1 0
Core_0_LLC_acc_level_2 0
Core_0_LLC_acc_level_3 0
Core_0_LLC_acc_level_4 0
Core_0_LLC_acc_level_5 0
Core_0_LLC_acc_level_6 0
Core_0_LLC_acc_level_7 0
Core_0_LLC_acc_level_8 0
Core_0_LLC_acc_level_9 0

Core_0_major_page_fault 0
Core_0_minor_page_fault 911

-------- Custom final stats --------
Total number of elements ever stored in prediction table :166618
Channel_0_RQ_row_buffer_hit 18867
Channel_0_RQ_row_buffer_miss 10910
Channel_0_WQ_row_buffer_hit 0
Channel_0_WQ_row_buffer_miss 211
Channel_0_WQ_full 0
Channel_0_dbus_congested 0

avg_congested_cycle 0

DRAM_bw_pochs 2048375
DRAM_bw_level_0 2048375
DRAM_bw_level_1 0
DRAM_bw_level_2 0
DRAM_bw_level_3 0
