*************************************************
   ChampSim Multicore Out-of-Order Simulator
   Last compiled: Dec  3 2023 14:43:31
*************************************************
parsing config file: /home/pcineverdies/Projects/RM4ES/Prefetcher-Research-Project/config/pythia.ini

trace_0 /home/pcineverdies/Projects/RM4ES/Prefetcher-Research-Project/traces/MNIST_NN.champsimtrace.xz
adding L2C_PREFETCHER: Scooby
Initialize SHIP state
warmup_instructions 100000
simulation_instructions 50000000
champsim_seed 646
measure_ipc 0
measure_ipc_epoch 1000
measure_dram_bw 1
measure_dram_bw_epoch 256
measure_cache_acc 1
measure_cache_acc_epoch 1024
l1d_perfect 0
l2c_perfect 0
llc_perfect 0
l1d_semi_perfect 0
l2c_semi_perfect 0
llc_semi_perfect 0
semi_perfect_cache_page_buffer_size 64

num_cpus 1
cpu_freq 550
dram_io_freq 2400
page_size 4096
block_size 64
max_read_per_cycle 8
max_fill_per_cycle 1
dram_channels 1
log2_dram_channels 0
dram_ranks 1
dram_banks 8
dram_rows 65536
dram_columns 128
dram_row_size 8
dram_size 4096
dram_pages 1048576

fetch_width 2
decode_width 2
exec_width 2
lq_width 1
sq_width 1
retire_width 5
scheduler_size 1
branch_mispredict_penalty 1
rob_size 256
lq_size 72
sq_size 56
num_instr_destinations_sparc 4
num_instr_destinations 2
num_instr_sources 4

itlb_set 1024
itlb_way 1024
itlb_rq_size 16
itlb_wq_size 16
itlb_pq_size 0
itlb_mshr_size 8
itlb_latency 0

dtlb_set 1024
dtlb_way 1024
dtlb_rq_size 32
dtlb_wq_size 32
dtlb_pq_size 0
dtlb_mshr_size 8
dtlb_latency 1

stlb_set 1024
stlb_way 1024
stlb_rq_size 32
stlb_wq_size 32
stlb_pq_size 0
stlb_mshr_size 16
stlb_latency 0

l1i_size 32
l1i_set 64
l1i_way 8
l1i_rq_size 64
l1i_wq_size 64
l1i_pq_size 32
l1i_mshr_size 8
l1i_latency 4

l1d_size 48
l1d_set 64
l1d_way 12
l1d_rq_size 64
l1d_wq_size 64
l1d_pq_size 8
l1d_mshr_size 16
l1d_latency 5

l2c_size 512
l2c_set 1024
l2c_way 8
l2c_rq_size 32
l2c_wq_size 32
l2c_pq_size 16
l2c_mshr_size 32
l2c_latency 10

llc_size 2048
llc_set 2048
llc_way 16
llc_rq_size 32
llc_wq_size 32
llc_pq_size 32
llc_mshr_size 64
llc_latency 20

dram_channel_width 8
dram_wq_size 64
dram_rq_size 64
tRP 15
tRCD 15
tCAS 12.5
dram_dbus_turn_around_time 4
dram_write_high_wm 56
dram_write_low_wm 48
min_dram_writes_per_switch 16
dram_mtps 2400
dram_dbus_return_time 1

scooby_alpha 0.0065088
scooby_gamma 0.556301
scooby_epsilon 0.00182284
scooby_state_num_bits 10
scooby_max_states 1024
scooby_seed 200
scooby_policy EGreedy
scooby_learning_type SARSA
scooby_actions 1,3,4,5,10,11,12,22,23,30,32,-1,-3,-6,0,
scooby_max_actions 15
scooby_pt_size 256
scooby_st_size 64
scooby_max_pcs 5
scooby_max_offsets 5
scooby_max_deltas 5
scooby_reward_none -4
scooby_reward_incorrect -8
scooby_reward_correct_untimely 12
scooby_reward_correct_timely 20
scooby_brain_zero_init 0
scooby_enable_reward_all 0
scooby_enable_track_multiple 0
scooby_enable_reward_out_of_bounds 1
scooby_reward_out_of_bounds -12
scooby_state_type 1
scooby_state_hash_type 11
scooby_access_debug 0
scooby_print_access_debug 0
scooby_print_access_debug_pc deadbeef
scooby_print_access_debug_pc_count 0
scooby_print_trace 0
scooby_enable_state_action_stats 1
scooby_enable_reward_tracker_hit 0
scooby_reward_tracker_hit -2
scooby_enable_featurewise_engine 1
scooby_pref_degree 1
scooby_enable_dyn_degree 1
scooby_max_to_avg_q_thresholds 0.5,1,2,
scooby_dyn_degrees 1,2,4,4,
scooby_multi_deg_select_type 2
scooby_last_pref_offset_conf_thresholds 1,3,8,
scooby_dyn_degrees_type2 1,2,4,6,
scooby_action_tracker_size 2
scooby_high_bw_thresh 4
scooby_enable_hbw_reward 1
scooby_reward_hbw_correct_timely 20
scooby_reward_hbw_correct_untimely 12
scooby_reward_hbw_incorrect -14
scooby_reward_hbw_none -2
scooby_reward_hbw_out_of_bounds -12
scooby_reward_hbw_tracker_hit -2
scooby_last_pref_offset_conf_thresholds_hbw 1,3,8,
scooby_dyn_degrees_type2_hbw 1,2,4,6,

le_enable_trace 0
le_trace_interval 0
le_trace_file_name 
le_trace_state 0
le_enable_score_plot 0
le_plot_file_name 
le_plot_actions 
le_enable_action_trace 0
le_action_trace_interval 0
le_action_trace_name 
le_enable_action_plot 0

le_featurewise_active_features PC, PC_Delta
le_featurewise_num_tilings 3,3,
le_featurewise_num_tiles 128,128,
le_featurewise_hash_types 2,2,
le_featurewise_enable_tiling_offset 1,1,
le_featurewise_max_q_thresh 0.5
le_featurewise_enable_action_fallback 1
le_featurewise_feature_weights 1,1,
le_featurewise_enable_dynamic_weight 0
le_featurewise_weight_gradient 0.001
le_featurewise_disable_adjust_weight_all_features_align 1
le_featurewise_selective_update 0
le_featurewise_pooling_type 2
le_featurewise_enable_dyn_action_fallback 1
le_featurewise_bw_acc_check_level 1
le_featurewise_acc_thresh 2
le_featurewise_enable_trace 0
le_featurewise_trace_feature_type 0
le_featurewise_trace_feature 
le_featurewise_trace_interval 0
le_featurewise_trace_record_count 0
le_featurewise_trace_file_name 
le_featurewise_enable_score_plot 0
le_featurewise_plot_actions 
le_featurewise_plot_file_name 



Warmup complete CPU  0 instructions:     100001 cycles:     135888 (Simulation time: 0 hr 0 min 0 sec) 

Heartbeat CPU  0 instructions:    1000000 cycles:    8935355 heartbeat IPC: 0.11191 cumulative IPC: 0.10228 (Simulation time: 0 hr 0 min 2 sec) 
Heartbeat CPU  0 instructions:    2000000 cycles:   18718052 heartbeat IPC: 0.10222 cumulative IPC: 0.10225 (Simulation time: 0 hr 0 min 4 sec) 
Heartbeat CPU  0 instructions:    3000000 cycles:   28258646 heartbeat IPC: 0.10482 cumulative IPC: 0.10312 (Simulation time: 0 hr 0 min 6 sec) 
Heartbeat CPU  0 instructions:    4000000 cycles:   38206618 heartbeat IPC: 0.10052 cumulative IPC: 0.10244 (Simulation time: 0 hr 0 min 9 sec) 
Heartbeat CPU  0 instructions:    5000000 cycles:   48356004 heartbeat IPC: 0.09853 cumulative IPC: 0.10162 (Simulation time: 0 hr 0 min 12 sec) 
Heartbeat CPU  0 instructions:    6000000 cycles:   58505416 heartbeat IPC: 0.09853 cumulative IPC: 0.10108 (Simulation time: 0 hr 0 min 15 sec) 
Heartbeat CPU  0 instructions:    7000000 cycles:   68654748 heartbeat IPC: 0.09853 cumulative IPC: 0.10070 (Simulation time: 0 hr 0 min 19 sec) 
Heartbeat CPU  0 instructions:    8000000 cycles:   78804091 heartbeat IPC: 0.09853 cumulative IPC: 0.10042 (Simulation time: 0 hr 0 min 23 sec) 
Heartbeat CPU  0 instructions:    9000000 cycles:   88953325 heartbeat IPC: 0.09853 cumulative IPC: 0.10021 (Simulation time: 0 hr 0 min 26 sec) 
Heartbeat CPU  0 instructions:   10000000 cycles:   99102508 heartbeat IPC: 0.09853 cumulative IPC: 0.10003 (Simulation time: 0 hr 0 min 30 sec) 
Heartbeat CPU  0 instructions:   11000000 cycles:  109251741 heartbeat IPC: 0.09853 cumulative IPC: 0.09989 (Simulation time: 0 hr 0 min 34 sec) 
Heartbeat CPU  0 instructions:   12000000 cycles:  119483243 heartbeat IPC: 0.09774 cumulative IPC: 0.09971 (Simulation time: 0 hr 0 min 37 sec) 
Heartbeat CPU  0 instructions:   13000000 cycles:  130122648 heartbeat IPC: 0.09399 cumulative IPC: 0.09924 (Simulation time: 0 hr 0 min 41 sec) 
Heartbeat CPU  0 instructions:   14000000 cycles:  140762231 heartbeat IPC: 0.09399 cumulative IPC: 0.09884 (Simulation time: 0 hr 0 min 44 sec) 
Heartbeat CPU  0 instructions:   15000000 cycles:  151401755 heartbeat IPC: 0.09399 cumulative IPC: 0.09850 (Simulation time: 0 hr 0 min 48 sec) 
Heartbeat CPU  0 instructions:   16000000 cycles:  161969661 heartbeat IPC: 0.09463 cumulative IPC: 0.09825 (Simulation time: 0 hr 0 min 51 sec) 
Heartbeat CPU  0 instructions:   17000000 cycles:  172607655 heartbeat IPC: 0.09400 cumulative IPC: 0.09799 (Simulation time: 0 hr 0 min 55 sec) 
Heartbeat CPU  0 instructions:   18000000 cycles:  183245626 heartbeat IPC: 0.09400 cumulative IPC: 0.09776 (Simulation time: 0 hr 0 min 59 sec) 
Heartbeat CPU  0 instructions:   19000000 cycles:  193812420 heartbeat IPC: 0.09464 cumulative IPC: 0.09759 (Simulation time: 0 hr 1 min 2 sec) 
Heartbeat CPU  0 instructions:   20000000 cycles:  204450346 heartbeat IPC: 0.09400 cumulative IPC: 0.09740 (Simulation time: 0 hr 1 min 6 sec) 
Heartbeat CPU  0 instructions:   21000000 cycles:  215088332 heartbeat IPC: 0.09400 cumulative IPC: 0.09723 (Simulation time: 0 hr 1 min 9 sec) 
Heartbeat CPU  0 instructions:   22000000 cycles:  225726260 heartbeat IPC: 0.09400 cumulative IPC: 0.09708 (Simulation time: 0 hr 1 min 12 sec) 
Heartbeat CPU  0 instructions:   23000000 cycles:  236293003 heartbeat IPC: 0.09464 cumulative IPC: 0.09697 (Simulation time: 0 hr 1 min 16 sec) 
Heartbeat CPU  0 instructions:   24000000 cycles:  246931004 heartbeat IPC: 0.09400 cumulative IPC: 0.09684 (Simulation time: 0 hr 1 min 19 sec) 
Heartbeat CPU  0 instructions:   25000000 cycles:  257568992 heartbeat IPC: 0.09400 cumulative IPC: 0.09672 (Simulation time: 0 hr 1 min 23 sec) 
Heartbeat CPU  0 instructions:   26000000 cycles:  268135736 heartbeat IPC: 0.09464 cumulative IPC: 0.09664 (Simulation time: 0 hr 1 min 27 sec) 
Heartbeat CPU  0 instructions:   27000000 cycles:  278773670 heartbeat IPC: 0.09400 cumulative IPC: 0.09654 (Simulation time: 0 hr 1 min 30 sec) 
Heartbeat CPU  0 instructions:   28000000 cycles:  289411635 heartbeat IPC: 0.09400 cumulative IPC: 0.09645 (Simulation time: 0 hr 1 min 33 sec) 
Heartbeat CPU  0 instructions:   29000000 cycles:  300044654 heartbeat IPC: 0.09405 cumulative IPC: 0.09636 (Simulation time: 0 hr 1 min 36 sec) 
Heartbeat CPU  0 instructions:   30000000 cycles:  310616375 heartbeat IPC: 0.09459 cumulative IPC: 0.09630 (Simulation time: 0 hr 1 min 40 sec) 
Heartbeat CPU  0 instructions:   31000000 cycles:  321254295 heartbeat IPC: 0.09400 cumulative IPC: 0.09623 (Simulation time: 0 hr 1 min 43 sec) 
Heartbeat CPU  0 instructions:   32000000 cycles:  331892266 heartbeat IPC: 0.09400 cumulative IPC: 0.09615 (Simulation time: 0 hr 1 min 46 sec) 
Heartbeat CPU  0 instructions:   33000000 cycles:  342458998 heartbeat IPC: 0.09464 cumulative IPC: 0.09611 (Simulation time: 0 hr 1 min 49 sec) 
Heartbeat CPU  0 instructions:   34000000 cycles:  353096948 heartbeat IPC: 0.09400 cumulative IPC: 0.09604 (Simulation time: 0 hr 1 min 52 sec) 
Heartbeat CPU  0 instructions:   35000000 cycles:  363734972 heartbeat IPC: 0.09400 cumulative IPC: 0.09598 (Simulation time: 0 hr 1 min 55 sec) 
Heartbeat CPU  0 instructions:   36000000 cycles:  374336048 heartbeat IPC: 0.09433 cumulative IPC: 0.09594 (Simulation time: 0 hr 1 min 58 sec) 
Heartbeat CPU  0 instructions:   37000000 cycles:  384939646 heartbeat IPC: 0.09431 cumulative IPC: 0.09589 (Simulation time: 0 hr 2 min 0 sec) 
Heartbeat CPU  0 instructions:   38000000 cycles:  395577595 heartbeat IPC: 0.09400 cumulative IPC: 0.09584 (Simulation time: 0 hr 2 min 3 sec) 
Heartbeat CPU  0 instructions:   39000000 cycles:  406215626 heartbeat IPC: 0.09400 cumulative IPC: 0.09579 (Simulation time: 0 hr 2 min 6 sec) 
Heartbeat CPU  0 instructions:   40000000 cycles:  416782292 heartbeat IPC: 0.09464 cumulative IPC: 0.09576 (Simulation time: 0 hr 2 min 8 sec) 
Heartbeat CPU  0 instructions:   41000000 cycles:  427420233 heartbeat IPC: 0.09400 cumulative IPC: 0.09572 (Simulation time: 0 hr 2 min 11 sec) 
Heartbeat CPU  0 instructions:   42000000 cycles:  438058189 heartbeat IPC: 0.09400 cumulative IPC: 0.09568 (Simulation time: 0 hr 2 min 13 sec) 
Heartbeat CPU  0 instructions:   43000000 cycles:  448624908 heartbeat IPC: 0.09464 cumulative IPC: 0.09565 (Simulation time: 0 hr 2 min 16 sec) 
Heartbeat CPU  0 instructions:   44000000 cycles:  459262804 heartbeat IPC: 0.09400 cumulative IPC: 0.09562 (Simulation time: 0 hr 2 min 18 sec) 
Heartbeat CPU  0 instructions:   45000000 cycles:  469900715 heartbeat IPC: 0.09400 cumulative IPC: 0.09558 (Simulation time: 0 hr 2 min 21 sec) 
Heartbeat CPU  0 instructions:   46000000 cycles:  480538732 heartbeat IPC: 0.09400 cumulative IPC: 0.09554 (Simulation time: 0 hr 2 min 24 sec) 
Heartbeat CPU  0 instructions:   47000000 cycles:  491105435 heartbeat IPC: 0.09464 cumulative IPC: 0.09553 (Simulation time: 0 hr 2 min 27 sec) 
Heartbeat CPU  0 instructions:   48000000 cycles:  501743383 heartbeat IPC: 0.09400 cumulative IPC: 0.09549 (Simulation time: 0 hr 2 min 30 sec) 
Heartbeat CPU  0 instructions:   49000000 cycles:  512381348 heartbeat IPC: 0.09400 cumulative IPC: 0.09546 (Simulation time: 0 hr 2 min 33 sec) 
Heartbeat CPU  0 instructions:   50000000 cycles:  522948014 heartbeat IPC: 0.09464 cumulative IPC: 0.09545 (Simulation time: 0 hr 2 min 35 sec) 
Finished CPU 0 instructions: 50000000 cycles: 523875931 cumulative IPC: 0.09544 (Simulation time: 0 hr 2 min 36 sec) 

ChampSim completed all CPUs

[ROI Statistics]
Core_0_instructions 50000000
Core_0_cycles 523875931
Core_0_IPC 0.09544

Core_0_branch_prediction_accuracy 99.09397
Core_0_branch_MPKI 0.54578
Core_0_average_ROB_occupancy_at_mispredict 167.71707

Core_0_L1D_total_access 23765143
Core_0_L1D_total_hit 23595393
Core_0_L1D_total_miss 169750
Core_0_L1D_loads 19673482
Core_0_L1D_load_hit 19510422
Core_0_L1D_load_miss 163060
Core_0_L1D_RFOs 4091661
Core_0_L1D_RFO_hit 4084971
Core_0_L1D_RFO_miss 6690
Core_0_L1D_prefetches 0
Core_0_L1D_prefetch_hit 0
Core_0_L1D_prefetch_miss 0
Core_0_L1D_writebacks 0
Core_0_L1D_writeback_hit 0
Core_0_L1D_writeback_miss 0
Core_0_L1D_prefetch_requested 0
Core_0_L1D_prefetch_dropped 0
Core_0_L1D_prefetch_issued 0
Core_0_L1D_prefetch_filled 0
Core_0_L1D_prefetch_useful 0
Core_0_L1D_prefetch_useless 0
Core_0_L1D_prefetch_late 0
Core_0_L1D_average_miss_latency 18.23634

Core_0_L1D_rq_access 19673499
Core_0_L1D_rq_forward 0
Core_0_L1D_rq_merged 0
Core_0_L1D_rq_to_cache 19673499
Core_0_L1D_rq_full 0

Core_0_L1D_wq_access 4093412
Core_0_L1D_wq_forward 0
Core_0_L1D_wq_merged 0
Core_0_L1D_wq_to_cache 4093412
Core_0_L1D_wq_full 0

Core_0_L1D_pq_access 0
Core_0_L1D_pq_forward 0
Core_0_L1D_pq_merged 0
Core_0_L1D_pq_to_cache 0
Core_0_L1D_pq_full 0

Core_0_L1D_acc_epochs 511652
Core_0_L1D_acc_level_0 511652
Core_0_L1D_acc_level_1 0
Core_0_L1D_acc_level_2 0
Core_0_L1D_acc_level_3 0
Core_0_L1D_acc_level_4 0
Core_0_L1D_acc_level_5 0
Core_0_L1D_acc_level_6 0
Core_0_L1D_acc_level_7 0
Core_0_L1D_acc_level_8 0
Core_0_L1D_acc_level_9 0

Core_0_L1I_total_access 45981178
Core_0_L1I_total_hit 45978876
Core_0_L1I_total_miss 2302
Core_0_L1I_loads 45981178
Core_0_L1I_load_hit 45978876
Core_0_L1I_load_miss 2302
Core_0_L1I_RFOs 0
Core_0_L1I_RFO_hit 0
Core_0_L1I_RFO_miss 0
Core_0_L1I_prefetches 0
Core_0_L1I_prefetch_hit 0
Core_0_L1I_prefetch_miss 0
Core_0_L1I_writebacks 0
Core_0_L1I_writeback_hit 0
Core_0_L1I_writeback_miss 0
Core_0_L1I_prefetch_requested 0
Core_0_L1I_prefetch_dropped 0
Core_0_L1I_prefetch_issued 0
Core_0_L1I_prefetch_filled 0
Core_0_L1I_prefetch_useful 0
Core_0_L1I_prefetch_useless 0
Core_0_L1I_prefetch_late 0
Core_0_L1I_average_miss_latency 45.76586

Core_0_L1I_rq_access 50000187
Core_0_L1I_rq_forward 0
Core_0_L1I_rq_merged 4018436
Core_0_L1I_rq_to_cache 45981751
Core_0_L1I_rq_full 0

Core_0_L1I_wq_access 0
Core_0_L1I_wq_forward 0
Core_0_L1I_wq_merged 0
Core_0_L1I_wq_to_cache 0
Core_0_L1I_wq_full 0

Core_0_L1I_pq_access 0
Core_0_L1I_pq_forward 0
Core_0_L1I_pq_merged 0
Core_0_L1I_pq_to_cache 0
Core_0_L1I_pq_full 0

Core_0_L1I_acc_epochs 511652
Core_0_L1I_acc_level_0 511652
Core_0_L1I_acc_level_1 0
Core_0_L1I_acc_level_2 0
Core_0_L1I_acc_level_3 0
Core_0_L1I_acc_level_4 0
Core_0_L1I_acc_level_5 0
Core_0_L1I_acc_level_6 0
Core_0_L1I_acc_level_7 0
Core_0_L1I_acc_level_8 0
Core_0_L1I_acc_level_9 0

Core_0_L2C_total_access 994285
Core_0_L2C_total_hit 825774
Core_0_L2C_total_miss 168511
Core_0_L2C_loads 165362
Core_0_L2C_load_hit 158724
Core_0_L2C_load_miss 6638
Core_0_L2C_RFOs 6690
Core_0_L2C_RFO_hit 1917
Core_0_L2C_RFO_miss 4773
Core_0_L2C_prefetches 814572
Core_0_L2C_prefetch_hit 657494
Core_0_L2C_prefetch_miss 157078
Core_0_L2C_writebacks 7661
Core_0_L2C_writeback_hit 7639
Core_0_L2C_writeback_miss 22
Core_0_L2C_prefetch_requested 820802
Core_0_L2C_prefetch_dropped 15
Core_0_L2C_prefetch_issued 820787
Core_0_L2C_prefetch_filled 158565
Core_0_L2C_prefetch_useful 153260
Core_0_L2C_prefetch_useless 5277
Core_0_L2C_prefetch_late 58
Core_0_L2C_average_miss_latency 36.53058

Core_0_L2C_rq_access 172052
Core_0_L2C_rq_forward 0
Core_0_L2C_rq_merged 0
Core_0_L2C_rq_to_cache 172052
Core_0_L2C_rq_full 0

Core_0_L2C_wq_access 7661
Core_0_L2C_wq_forward 0
Core_0_L2C_wq_merged 0
Core_0_L2C_wq_to_cache 7661
Core_0_L2C_wq_full 0

Core_0_L2C_pq_access 820787
Core_0_L2C_pq_forward 0
Core_0_L2C_pq_merged 1258
Core_0_L2C_pq_to_cache 819529
Core_0_L2C_pq_full 0

Core_0_L2C_acc_epochs 511652
Core_0_L2C_acc_level_0 175555
Core_0_L2C_acc_level_1 93450
Core_0_L2C_acc_level_2 91220
Core_0_L2C_acc_level_3 31588
Core_0_L2C_acc_level_4 1028
Core_0_L2C_acc_level_5 87638
Core_0_L2C_acc_level_6 28194
Core_0_L2C_acc_level_7 1089
Core_0_L2C_acc_level_8 890
Core_0_L2C_acc_level_9 1000

Core_0_LLC_total_access 174651
Core_0_LLC_total_hit 140904
Core_0_LLC_total_miss 33747
Core_0_LLC_loads 6592
Core_0_LLC_load_hit 2574
Core_0_LLC_load_miss 4018
Core_0_LLC_RFOs 4773
Core_0_LLC_RFO_hit 1125
Core_0_LLC_RFO_miss 3648
Core_0_LLC_prefetches 157124
Core_0_LLC_prefetch_hit 131043
Core_0_LLC_prefetch_miss 26081
Core_0_LLC_writebacks 6162
Core_0_LLC_writeback_hit 6162
Core_0_LLC_writeback_miss 0
Core_0_LLC_prefetch_requested 0
Core_0_LLC_prefetch_dropped 0
Core_0_LLC_prefetch_issued 0
Core_0_LLC_prefetch_filled 27580
Core_0_LLC_prefetch_useful 199
Core_0_LLC_prefetch_useless 2590
Core_0_LLC_prefetch_late 0
Core_0_LLC_average_miss_latency 32.45705

Core_0_LLC_rq_access 11365
Core_0_LLC_rq_forward 0
Core_0_LLC_rq_merged 0
Core_0_LLC_rq_to_cache 11365
Core_0_LLC_rq_full 0

Core_0_LLC_wq_access 6162
Core_0_LLC_wq_forward 0
Core_0_LLC_wq_merged 0
Core_0_LLC_wq_to_cache 6162
Core_0_LLC_wq_full 0

Core_0_LLC_pq_access 158623
Core_0_LLC_pq_forward 0
Core_0_LLC_pq_merged 0
Core_0_LLC_pq_to_cache 158623
Core_0_LLC_pq_full 0

Core_0_LLC_acc_epochs 511731
Core_0_LLC_acc_level_0 511584
Core_0_LLC_acc_level_1 53
Core_0_LLC_acc_level_2 42
Core_0_LLC_acc_level_3 5
Core_0_LLC_acc_level_4 0
Core_0_LLC_acc_level_5 37
Core_0_LLC_acc_level_6 0
Core_0_LLC_acc_level_7 3
Core_0_LLC_acc_level_8 0
Core_0_LLC_acc_level_9 7

Core_0_major_page_fault 0
Core_0_minor_page_fault 911

scooby_st_lookup 166618
scooby_st_hit 162599
scooby_st_evict 3955
scooby_st_insert 4019
scooby_st_streaming 0

scooby_predict_called 166618
scooby_predict_out_of_bounds 3091
scooby_predict_action_1 160528
scooby_predict_issue_action_1 160195
scooby_predict_hit_action_1 333
scooby_predict_out_of_bounds_action_1 2531
scooby_predict_action_3 343
scooby_predict_issue_action_3 322
scooby_predict_hit_action_3 21
scooby_predict_out_of_bounds_action_3 14
scooby_predict_action_4 307
scooby_predict_issue_action_4 281
scooby_predict_hit_action_4 26
scooby_predict_out_of_bounds_action_4 18
scooby_predict_action_5 384
scooby_predict_issue_action_5 352
scooby_predict_hit_action_5 32
scooby_predict_out_of_bounds_action_5 33
scooby_predict_action_10 253
scooby_predict_issue_action_10 234
scooby_predict_hit_action_10 19
scooby_predict_out_of_bounds_action_10 40
scooby_predict_action_11 171
scooby_predict_issue_action_11 157
scooby_predict_hit_action_11 14
scooby_predict_out_of_bounds_action_11 46
scooby_predict_action_12 188
scooby_predict_issue_action_12 174
scooby_predict_hit_action_12 14
scooby_predict_out_of_bounds_action_12 55
scooby_predict_action_22 134
scooby_predict_issue_action_22 127
scooby_predict_hit_action_22 7
scooby_predict_out_of_bounds_action_22 70
scooby_predict_action_23 99
scooby_predict_issue_action_23 94
scooby_predict_hit_action_23 5
scooby_predict_out_of_bounds_action_23 78
scooby_predict_action_30 104
scooby_predict_issue_action_30 97
scooby_predict_hit_action_30 7
scooby_predict_out_of_bounds_action_30 105
scooby_predict_action_32 79
scooby_predict_issue_action_32 76
scooby_predict_hit_action_32 3
scooby_predict_out_of_bounds_action_32 73
scooby_predict_action_-1 232
scooby_predict_issue_action_-1 193
scooby_predict_hit_action_-1 39
scooby_predict_out_of_bounds_action_-1 1
scooby_predict_action_-3 226
scooby_predict_issue_action_-3 190
scooby_predict_hit_action_-3 36
scooby_predict_out_of_bounds_action_-3 12
scooby_predict_action_-6 170
scooby_predict_issue_action_-6 141
scooby_predict_hit_action_-6 29
scooby_predict_out_of_bounds_action_-6 15
scooby_predict_action_0 309
scooby_predict_issue_action_0 0
scooby_predict_hit_action_0 0
scooby_predict_out_of_bounds_action_0 0
scooby_predict_multi_deg_called 149421
scooby_predict_predicted 820802
scooby_predict_multi_deg 658169
scooby_predict_multi_deg_2 146948
scooby_predict_multi_deg_3 138375
scooby_predict_multi_deg_4 135943
scooby_predict_multi_deg_5 119657
scooby_predict_multi_deg_6 117246
scooby_predict_multi_deg_7 0
scooby_predict_multi_deg_8 0
scooby_predict_multi_deg_9 0
scooby_predict_multi_deg_10 0
scooby_predict_multi_deg_11 0
scooby_predict_multi_deg_12 0
scooby_predict_multi_deg_13 0
scooby_predict_multi_deg_14 0
scooby_predict_multi_deg_15 0
scooby_predict_multi_deg_16 0

scooby_selected_deg_1 13212
scooby_selected_deg_2 6134
scooby_selected_deg_3 0
scooby_selected_deg_4 14003
scooby_selected_deg_5 0
scooby_selected_deg_6 129284
scooby_selected_deg_7 0
scooby_selected_deg_8 0
scooby_selected_deg_9 0
scooby_selected_deg_10 0
scooby_selected_deg_11 0
scooby_selected_deg_12 0
scooby_selected_deg_13 0
scooby_selected_deg_14 0
scooby_selected_deg_15 0
scooby_selected_deg_16 0

scooby_state_55ec3b9539d1|15|1 2206,0,2,0,0,0,0,0,0,1,0,2,1,0,0,2212,
scooby_state_55ec3b9539d1|14|1 2210,0,0,0,0,0,0,0,1,0,0,0,1,0,0,2212,
scooby_state_55ec3b9539d1|16|1 2203,0,0,0,0,1,0,2,1,0,1,1,0,2,1,2212,
scooby_state_55ec3b9539d1|13|1 2208,0,0,0,1,0,2,0,0,0,0,0,0,0,0,2211,
scooby_state_55ec3b9539d1|36|1 2194,0,0,1,0,0,0,1,1,2,0,0,1,0,1,2201,
scooby_state_55ec3b9539d1|21|1 2197,0,0,1,0,1,0,0,0,0,0,1,1,0,0,2201,
scooby_state_55ec3b9539d1|23|1 2193,0,1,1,0,2,0,0,1,0,0,0,0,1,2,2201,
scooby_state_55ec3b9539d1|25|1 2196,0,0,1,0,0,1,0,2,0,0,0,0,1,0,2201,
scooby_state_55ec3b9539d1|28|1 2195,1,0,1,2,0,2,0,0,0,0,0,0,0,0,2201,
scooby_state_55ec3b9539d1|29|1 2198,0,0,0,0,0,1,1,0,0,0,0,0,0,1,2201,
scooby_state_55ec3b9539d1|31|1 2198,0,1,0,0,1,0,0,0,0,0,1,0,0,0,2201,
scooby_state_55ec3b9539d1|32|1 2198,0,1,0,0,0,0,0,0,0,0,2,0,0,0,2201,
scooby_state_55ec3b9539d1|34|1 2198,0,0,0,1,0,0,1,0,0,0,0,0,1,0,2201,
scooby_state_55ec3b9539d1|37|1 2196,0,0,1,1,1,0,0,0,1,0,0,1,0,0,2201,
scooby_state_55ec3b9539d1|40|1 2200,0,0,0,0,0,0,1,0,0,0,0,0,0,0,2201,
scooby_state_55ec3b9539d1|42|1 2199,0,0,1,0,0,0,0,0,0,1,0,0,0,0,2201,
scooby_state_55ec3b9539d1|45|1 2199,0,0,0,0,0,1,0,0,0,0,0,1,0,0,2201,
scooby_state_55ec3b9539d1|19|1 2198,0,0,0,1,0,0,0,0,0,1,0,0,1,0,2201,
scooby_state_55ec3b9539d1|38|1 2199,0,0,1,0,0,0,0,0,1,0,0,0,0,0,2201,
scooby_state_55ec3b9539d1|30|1 2195,1,2,0,0,1,0,1,0,1,0,0,0,0,0,2201,
scooby_state_55ec3b9539d1|17|1 2199,0,0,0,0,0,0,1,0,0,0,0,1,0,0,2201,
scooby_state_55ec3b9539d1|18|1 2200,0,0,0,0,0,0,0,0,0,0,1,0,0,0,2201,
scooby_state_55ec3b9539d1|33|1 2196,1,0,0,0,1,0,0,1,0,0,0,1,0,1,2201,
scooby_state_55ec3b9539d1|41|1 2199,1,0,0,1,0,0,0,0,0,0,0,0,0,0,2201,
scooby_state_55ec3b9539d1|44|1 2200,0,0,0,0,0,0,0,0,1,0,0,0,0,0,2201,
scooby_state_55ec3b9539d1|39|1 2199,0,0,0,0,0,0,0,0,0,1,1,0,0,0,2201,
scooby_state_55ec3b9539d1|35|1 2197,1,0,0,0,0,1,0,0,0,0,1,1,0,0,2201,
scooby_state_55ec3b9539d1|26|1 2199,0,1,0,0,0,1,0,0,0,0,0,0,0,0,2201,
scooby_state_55ec3b9539d1|27|1 2195,0,0,0,0,0,0,1,1,2,0,0,0,0,2,2201,
scooby_state_55ec3b9539d1|46|1 2197,1,0,0,0,0,0,0,1,1,0,0,0,0,1,2201,
scooby_state_55ec3b9539d1|43|1 2197,1,0,1,0,1,0,1,0,0,0,0,0,0,0,2201,
scooby_state_55ec3b9539d1|24|1 2201,0,0,0,0,0,0,0,0,0,0,0,0,0,0,2201,
scooby_state_55ec3b9539d1|22|1 2196,0,0,1,0,1,1,0,1,0,0,0,0,1,0,2201,
scooby_state_55ec3b9539d1|20|1 2194,1,0,1,0,0,1,0,0,0,1,0,2,1,0,2201,
scooby_state_55ec3b9539d1|63|1 2197,0,1,0,0,0,1,0,1,0,0,0,0,0,0,2200,
scooby_state_55ec3b9539d1|0|0 2195,1,0,1,0,0,1,1,0,0,0,0,0,1,0,2200,
scooby_state_55ec3b9539d1|1|1 2196,0,0,1,0,0,0,0,1,2,0,0,0,0,0,2200,
scooby_state_55ec3b9539d1|4|1 2199,0,0,0,0,0,1,0,0,0,0,0,0,0,0,2200,
scooby_state_55ec3b9539d1|5|1 2195,0,0,0,1,0,1,1,0,0,1,0,0,1,0,2200,
scooby_state_55ec3b9539d1|9|1 2196,0,1,0,1,0,0,2,0,0,0,0,0,0,0,2200,
scooby_state_55ec3b9539d1|53|1 2195,1,1,0,1,1,0,0,0,0,0,0,1,0,0,2200,
scooby_state_55ec3b9539d1|10|1 2196,0,0,0,0,0,0,0,1,0,2,0,0,0,1,2200,
scooby_state_55ec3b9539d1|11|1 2197,0,0,0,1,0,0,0,0,1,0,1,0,0,0,2200,
scooby_state_55ec3b9539d1|12|1 2196,0,1,0,1,0,0,0,0,1,1,0,0,0,0,2200,
scooby_state_55ec3b9539d1|47|1 2196,1,0,0,1,0,0,0,1,0,0,1,0,0,0,2200,
scooby_state_55ec3b9539d1|62|1 2195,1,0,2,1,0,0,1,0,0,0,0,0,0,0,2200,
scooby_state_55ec3b9539d1|60|1 2198,0,0,0,0,0,0,1,1,0,0,0,0,0,0,2200,
scooby_state_55ec3b9539d1|58|1 2193,1,1,0,1,0,1,0,0,0,0,0,1,1,1,2200,
scooby_state_55ec3b9539d1|57|1 2195,0,1,0,1,0,0,2,1,0,0,0,0,0,0,2200,
scooby_state_55ec3b9539d1|55|1 2198,0,0,0,1,0,0,0,0,0,0,1,0,0,0,2200,
scooby_state_55ec3b9539d1|54|1 2196,1,0,0,1,1,0,0,0,1,0,0,0,0,0,2200,
scooby_state_55ec3b9539d1|52|1 2192,1,1,0,1,1,1,0,0,0,0,1,0,1,1,2200,
scooby_state_55ec3b9539d1|51|1 2196,2,1,0,0,0,0,0,0,0,0,0,0,0,1,2200,
scooby_state_55ec3b9539d1|50|1 2197,1,0,0,0,0,0,0,1,0,0,1,0,0,0,2200,
scooby_state_55ec3b9539d1|48|1 2197,0,0,0,0,0,0,0,0,0,0,0,0,1,2,2200,
scooby_state_55ec3b9539d1|49|1 2195,1,0,0,1,0,0,0,1,1,0,0,0,0,1,2200,
scooby_state_55ec3b9539d1|6|1 2194,1,0,1,0,1,0,0,0,1,1,0,0,1,0,2200,
scooby_state_55ec3b9539d1|61|1 2194,1,0,0,1,1,1,0,0,0,0,1,1,0,0,2200,
scooby_state_55ec3b9539d1|7|1 2198,1,0,0,1,0,0,0,0,0,0,0,0,0,0,2200,
scooby_state_55ec3b9539d1|56|1 2196,0,0,0,1,1,0,0,0,0,0,1,0,0,1,2200,
scooby_state_55ec3b9539d1|3|1 2195,0,0,0,0,0,0,1,2,0,0,0,0,1,1,2200,
scooby_state_55ec3b9539d1|59|1 2195,0,0,0,0,0,1,1,0,1,0,0,1,0,1,2200,
scooby_state_55ec3b9539d1|8|1 2197,0,0,1,0,0,0,0,0,1,1,0,0,0,0,2200,
scooby_state_55ec3b9539d1|2|1 2195,0,0,1,0,0,0,0,0,4,0,0,0,0,0,2200,
scooby_state_55ec3b953ad0|41|1 33,0,0,0,0,0,0,0,0,0,0,0,0,0,0,33,
scooby_state_55ec3b953ad0|51|1 33,0,0,0,0,0,0,0,0,0,0,0,0,0,0,33,
scooby_state_55ec3b953ad0|22|1 33,0,0,0,0,0,0,0,0,0,0,0,0,0,0,33,
scooby_state_55ec3b953ad0|38|1 33,0,0,0,0,0,0,0,0,0,0,0,0,0,0,33,
scooby_state_55ec3b953ad0|29|1 33,0,0,0,0,0,0,0,0,0,0,0,0,0,0,33,
scooby_state_55ec3b953ad0|50|1 33,0,0,0,0,0,0,0,0,0,0,0,0,0,0,33,
scooby_state_55ec3b953ad0|31|1 33,0,0,0,0,0,0,0,0,0,0,0,0,0,0,33,
scooby_state_55ec3b953ad0|20|1 33,0,0,0,0,0,0,0,0,0,0,0,0,0,0,33,
scooby_state_55ec3b953ad0|37|1 33,0,0,0,0,0,0,0,0,0,0,0,0,0,0,33,
scooby_state_55ec3b953ad0|53|1 33,0,0,0,0,0,0,0,0,0,0,0,0,0,0,33,
scooby_state_55ec3b953ad0|23|1 33,0,0,0,0,0,0,0,0,0,0,0,0,0,0,33,
scooby_state_55ec3b953ad0|7|1 33,0,0,0,0,0,0,0,0,0,0,0,0,0,0,33,
scooby_state_55ec3b953ad0|34|1 33,0,0,0,0,0,0,0,0,0,0,0,0,0,0,33,
scooby_state_55ec3b953ad0|43|1 33,0,0,0,0,0,0,0,0,0,0,0,0,0,0,33,
scooby_state_55ec3b953ad0|6|1 33,0,0,0,0,0,0,0,0,0,0,0,0,0,0,33,
scooby_state_55ec3b953ad0|45|1 33,0,0,0,0,0,0,0,0,0,0,0,0,0,0,33,
scooby_state_55ec3b953ad0|48|1 33,0,0,0,0,0,0,0,0,0,0,0,0,0,0,33,
scooby_state_55ec3b953ad0|49|1 33,0,0,0,0,0,0,0,0,0,0,0,0,0,0,33,
scooby_state_55ec3b953ad0|5|1 33,0,0,0,0,0,0,0,0,0,0,0,0,0,0,33,
scooby_state_55ec3b953ad0|28|1 33,0,0,0,0,0,0,0,0,0,0,0,0,0,0,33,
scooby_state_55ec3b953ad0|25|1 33,0,0,0,0,0,0,0,0,0,0,0,0,0,0,33,
scooby_state_55ec3b953ad0|19|1 32,0,0,0,0,0,0,0,0,0,1,0,0,0,0,33,
scooby_state_55ec3b953ad0|16|1 33,0,0,0,0,0,0,0,0,0,0,0,0,0,0,33,
scooby_state_55ec3b953ad0|42|1 33,0,0,0,0,0,0,0,0,0,0,0,0,0,0,33,
scooby_state_55ec3b953ad0|15|1 33,0,0,0,0,0,0,0,0,0,0,0,0,0,0,33,
scooby_state_55ec3b953ad0|14|1 33,0,0,0,0,0,0,0,0,0,0,0,0,0,0,33,
scooby_state_55ec3b953ad0|10|1 33,0,0,0,0,0,0,0,0,0,0,0,0,0,0,33,
scooby_state_55ec3b953ad0|9|1 33,0,0,0,0,0,0,0,0,0,0,0,0,0,0,33,
scooby_state_55ec3b953ad0|8|1 33,0,0,0,0,0,0,0,0,0,0,0,0,0,0,33,
scooby_state_55ec3b953ad0|52|1 33,0,0,0,0,0,0,0,0,0,0,0,0,0,0,33,
scooby_state_55ec3b953ad0|1|1 33,0,0,0,0,0,0,0,0,0,0,0,0,0,0,33,
scooby_state_55ec3b953ad0|63|1 33,0,0,0,0,0,0,0,0,0,0,0,0,0,0,33,
scooby_state_55ec3b953ad0|62|1 33,0,0,0,0,0,0,0,0,0,0,0,0,0,0,33,
scooby_state_55ec3b953ad0|60|1 33,0,0,0,0,0,0,0,0,0,0,0,0,0,0,33,
scooby_state_55ec3b953ad0|58|1 33,0,0,0,0,0,0,0,0,0,0,0,0,0,0,33,
scooby_state_55ec3b953ad0|57|1 33,0,0,0,0,0,0,0,0,0,0,0,0,0,0,33,
scooby_state_55ec3b953ad0|55|1 33,0,0,0,0,0,0,0,0,0,0,0,0,0,0,33,
scooby_state_55ec3b953ad0|54|1 33,0,0,0,0,0,0,0,0,0,0,0,0,0,0,33,
scooby_state_55ec3b953ad0|35|1 33,0,0,0,0,0,0,0,0,0,0,0,0,0,0,33,
scooby_state_55ec3b953ad0|12|1 33,0,0,0,0,0,0,0,0,0,0,0,0,0,0,33,
scooby_state_55ec3b953ad0|32|1 33,0,0,0,0,0,0,0,0,0,0,0,0,0,0,33,
scooby_state_55ec3b953ad0|39|1 33,0,0,0,0,0,0,0,0,0,0,0,0,0,0,33,
scooby_state_55ec3b953ad0|13|1 33,0,0,0,0,0,0,0,0,0,0,0,0,0,0,33,
scooby_state_55ec3b953ad0|3|1 33,0,0,0,0,0,0,0,0,0,0,0,0,0,0,33,
scooby_state_55ec3b953ad0|40|1 33,0,0,0,0,0,0,0,0,0,0,0,0,0,0,33,
scooby_state_55ec3b953ad0|26|1 33,0,0,0,0,0,0,0,0,0,0,0,0,0,0,33,
scooby_state_55ec3b953ad0|24|1 33,0,0,0,0,0,0,0,0,0,0,0,0,0,0,33,
scooby_state_55ec3b953ad0|59|1 33,0,0,0,0,0,0,0,0,0,0,0,0,0,0,33,
scooby_state_55ec3b953ad0|18|1 33,0,0,0,0,0,0,0,0,0,0,0,0,0,0,33,
scooby_state_55ec3b953ad0|11|1 33,0,0,0,0,0,0,0,0,0,0,0,0,0,0,33,
scooby_state_55ec3b953ad0|27|1 33,0,0,0,0,0,0,0,0,0,0,0,0,0,0,33,
scooby_state_55ec3b953ad0|2|1 33,0,0,0,0,0,0,0,0,0,0,0,0,0,0,33,
scooby_state_55ec3b953ad0|56|1 33,0,0,0,0,0,0,0,0,0,0,0,0,0,0,33,
scooby_state_55ec3b953ad0|36|1 33,0,0,0,0,0,0,0,0,0,0,0,0,0,0,33,
scooby_state_55ec3b953ad0|46|1 33,0,0,0,0,0,0,0,0,0,0,0,0,0,0,33,
scooby_state_55ec3b953ad0|0|0 33,0,0,0,0,0,0,0,0,0,0,0,0,0,0,33,
scooby_state_55ec3b953ad0|47|1 33,0,0,0,0,0,0,0,0,0,0,0,0,0,0,33,
scooby_state_55ec3b953ad0|61|1 33,0,0,0,0,0,0,0,0,0,0,0,0,0,0,33,
scooby_state_55ec3b953ad0|4|1 33,0,0,0,0,0,0,0,0,0,0,0,0,0,0,33,
scooby_state_55ec3b953ad0|30|1 33,0,0,0,0,0,0,0,0,0,0,0,0,0,0,33,
scooby_state_55ec3b953ad0|44|1 33,0,0,0,0,0,0,0,0,0,0,0,0,0,0,33,
scooby_state_55ec3b953ad0|17|1 33,0,0,0,0,0,0,0,0,0,0,0,0,0,0,33,
scooby_state_55ec3b953ad0|21|1 33,0,0,0,0,0,0,0,0,0,0,0,0,0,0,33,
scooby_state_55ec3b953ad0|33|1 33,0,0,0,0,0,0,0,0,0,0,0,0,0,0,33,
scooby_state_55ec3b9539c1|5|1 23,0,0,0,0,0,0,0,0,0,0,0,0,0,0,23,
scooby_state_55ec3b9539c1|6|1 23,0,0,0,0,0,0,0,0,0,0,0,0,0,0,23,
scooby_state_55ec3b9539a9|37|1 22,0,0,0,0,0,0,0,0,0,0,0,0,0,0,22,
scooby_state_55ec3b9539c1|14|1 22,0,0,0,0,0,0,0,0,0,0,0,0,0,0,22,
scooby_state_55ec3b9539a9|42|1 22,0,0,0,0,0,0,0,0,0,0,0,0,0,0,22,
scooby_state_55ec3b9539a9|36|1 22,0,0,0,0,0,0,0,0,0,0,0,0,0,0,22,
scooby_state_55ec3b9539c1|34|1 22,0,0,0,0,0,0,0,0,0,0,0,0,0,0,22,
scooby_state_55ec3b9539c1|33|1 22,0,0,0,0,0,0,0,0,0,0,0,0,0,0,22,
scooby_state_55ec3b9539a9|45|1 22,0,0,0,0,0,0,0,0,0,0,0,0,0,0,22,
scooby_state_55ec3b9539a9|26|1 22,0,0,0,0,0,0,0,0,0,0,0,0,0,0,22,
scooby_state_55ec3b9539a9|49|1 22,0,0,0,0,0,0,0,0,0,0,0,0,0,0,22,
scooby_state_55ec3b9539c1|2|1 22,0,0,0,0,0,0,0,0,0,0,0,0,0,0,22,
scooby_state_55ec3b9539a9|43|1 22,0,0,0,0,0,0,0,0,0,0,0,0,0,0,22,
scooby_state_55ec3b9539a9|34|1 22,0,0,0,0,0,0,0,0,0,0,0,0,0,0,22,
scooby_state_55ec3b9539c1|16|1 22,0,0,0,0,0,0,0,0,0,0,0,0,0,0,22,
scooby_state_55ec3b9539a9|41|1 22,0,0,0,0,0,0,0,0,0,0,0,0,0,0,22,
scooby_state_55ec3b9539a9|38|1 22,0,0,0,0,0,0,0,0,0,0,0,0,0,0,22,
scooby_state_55ec3b9539a9|31|1 22,0,0,0,0,0,0,0,0,0,0,0,0,0,0,22,
scooby_state_55ec3b9539c1|17|1 22,0,0,0,0,0,0,0,0,0,0,0,0,0,0,22,
scooby_state_55ec3b9539c1|13|1 22,0,0,0,0,0,0,0,0,0,0,0,0,0,0,22,
scooby_state_55ec3b9539c1|11|1 22,0,0,0,0,0,0,0,0,0,0,0,0,0,0,22,
scooby_state_55ec3b9539c1|20|1 22,0,0,0,0,0,0,0,0,0,0,0,0,0,0,22,
scooby_state_55ec3b9539c1|30|1 22,0,0,0,0,0,0,0,0,0,0,0,0,0,0,22,
scooby_state_55ec3b9539c1|23|1 22,0,0,0,0,0,0,0,0,0,0,0,0,0,0,22,
scooby_state_55ec3b9539a9|48|1 22,0,0,0,0,0,0,0,0,0,0,0,0,0,0,22,
scooby_state_55ec3b9539a9|40|1 22,0,0,0,0,0,0,0,0,0,0,0,0,0,0,22,
scooby_state_55ec3b9539c1|10|1 22,0,0,0,0,0,0,0,0,0,0,0,0,0,0,22,
scooby_state_55ec3b9539a9|27|1 22,0,0,0,0,0,0,0,0,0,0,0,0,0,0,22,
scooby_state_55ec3b9539c1|12|1 22,0,0,0,0,0,0,0,0,0,0,0,0,0,0,22,
scooby_state_55ec3b9539a9|28|1 22,0,0,0,0,0,0,0,0,0,0,0,0,0,0,22,
scooby_state_55ec3b9539a9|30|1 22,0,0,0,0,0,0,0,0,0,0,0,0,0,0,22,
scooby_state_55ec3b9539c1|15|1 22,0,0,0,0,0,0,0,0,0,0,0,0,0,0,22,
scooby_state_55ec3b9539a9|32|1 22,0,0,0,0,0,0,0,0,0,0,0,0,0,0,22,
scooby_state_55ec3b9539a9|33|1 22,0,0,0,0,0,0,0,0,0,0,0,0,0,0,22,
scooby_state_55ec3b9539c1|19|1 22,0,0,0,0,0,0,0,0,0,0,0,0,0,0,22,
scooby_state_55ec3b9539a9|35|1 22,0,0,0,0,0,0,0,0,0,0,0,0,0,0,22,
scooby_state_55ec3b9539c1|21|1 22,0,0,0,0,0,0,0,0,0,0,0,0,0,0,22,
scooby_state_55ec3b9539a9|39|1 22,0,0,0,0,0,0,0,0,0,0,0,0,0,0,22,
scooby_state_55ec3b9539c1|24|1 22,0,0,0,0,0,0,0,0,0,0,0,0,0,0,22,
scooby_state_55ec3b9539c1|25|1 22,0,0,0,0,0,0,0,0,0,0,0,0,0,0,22,
scooby_state_55ec3b9539c1|22|1 22,0,0,0,0,0,0,0,0,0,0,0,0,0,0,22,
scooby_state_55ec3b9539c1|26|1 22,0,0,0,0,0,0,0,0,0,0,0,0,0,0,22,
scooby_state_55ec3b9539c1|27|1 21,0,0,0,0,0,0,0,0,0,1,0,0,0,0,22,
scooby_state_55ec3b9539c1|28|1 22,0,0,0,0,0,0,0,0,0,0,0,0,0,0,22,
scooby_state_55ec3b9539a9|44|1 22,0,0,0,0,0,0,0,0,0,0,0,0,0,0,22,
scooby_state_55ec3b9539a9|46|1 22,0,0,0,0,0,0,0,0,0,0,0,0,0,0,22,
scooby_state_55ec3b9539c1|31|1 22,0,0,0,0,0,0,0,0,0,0,0,0,0,0,22,
scooby_state_55ec3b9539c1|32|1 22,0,0,0,0,0,0,0,0,0,0,0,0,0,0,22,
scooby_state_55ec3b9539a9|50|1 22,0,0,0,0,0,0,0,0,0,0,0,0,0,0,22,
scooby_state_55ec3b9539a9|24|1 22,0,0,0,0,0,0,0,0,0,0,0,0,0,0,22,
scooby_state_55ec3b9539a9|23|1 22,0,0,0,0,0,0,0,0,0,0,0,0,0,0,22,
scooby_state_55ec3b9539c1|18|1 22,0,0,0,0,0,0,0,0,0,0,0,0,0,0,22,
scooby_state_55ec3b9539c1|29|1 22,0,0,0,0,0,0,0,0,0,0,0,0,0,0,22,
scooby_state_55ec3b9539c1|9|1 22,0,0,0,0,0,0,0,0,0,0,0,0,0,0,22,
scooby_state_55ec3b9539c1|3|1 22,0,0,0,0,0,0,0,0,0,0,0,0,0,0,22,
scooby_state_55ec3b9539a9|47|1 22,0,0,0,0,0,0,0,0,0,0,0,0,0,0,22,
scooby_state_55ec3b9539a9|29|1 22,0,0,0,0,0,0,0,0,0,0,0,0,0,0,22,
scooby_state_55ec3b9539c1|4|1 22,0,0,0,0,0,0,0,0,0,0,0,0,0,0,22,
scooby_state_55ec3b9539c1|7|1 22,0,0,0,0,0,0,0,0,0,0,0,0,0,0,22,
scooby_state_55ec3b9539c1|8|1 22,0,0,0,0,0,0,0,0,0,0,0,0,0,0,22,
scooby_state_55ec3b9539a9|25|1 22,0,0,0,0,0,0,0,0,0,0,0,0,0,0,22,
scooby_state_7ff3f1870151|2|1 20,0,0,0,0,0,0,0,0,0,0,0,0,0,0,20,
scooby_state_7ff3f1870151|5|1 19,0,0,0,0,0,0,0,0,0,0,0,0,0,0,19,
scooby_state_7ff3f1870151|62|1 19,0,0,0,0,0,0,0,0,0,0,0,0,0,0,19,
scooby_state_7ff3f1870151|57|1 18,0,0,0,0,0,0,0,0,0,0,0,0,0,0,18,
scooby_state_7ff3f1870151|46|1 17,0,0,0,0,0,0,0,0,0,0,0,0,0,0,17,
scooby_state_7ff3f1870151|36|1 17,0,0,0,0,0,0,0,0,0,0,0,0,0,0,17,
scooby_state_7ff3f1870151|47|1 17,0,0,0,0,0,0,0,0,0,0,0,0,0,0,17,
scooby_state_7ff3f1870151|48|1 16,0,0,0,0,0,0,0,0,0,0,0,0,0,0,16,
scooby_state_7ff3f1870151|30|1 16,0,0,0,0,0,0,0,0,0,0,0,0,0,0,16,
scooby_state_7ff3f1870151|45|1 15,0,0,0,0,0,0,0,0,1,0,0,0,0,0,16,
scooby_state_7ff3f1870151|28|1 16,0,0,0,0,0,0,0,0,0,0,0,0,0,0,16,
scooby_state_7ff3f1870151|24|1 16,0,0,0,0,0,0,0,0,0,0,0,0,0,0,16,
scooby_state_7ff3f1870151|53|1 15,0,0,0,0,0,0,0,0,0,0,0,0,0,0,15,
scooby_state_7ff3f1870151|56|1 15,0,0,0,0,0,0,0,0,0,0,0,0,0,0,15,
scooby_state_7ff3f1870151|34|1 15,0,0,0,0,0,0,0,0,0,0,0,0,0,0,15,
scooby_state_7ff3f1870151|35|1 15,0,0,0,0,0,0,0,0,0,0,0,0,0,0,15,
scooby_state_7ff3f1870151|22|1 14,0,0,0,0,0,0,0,0,0,0,0,0,1,0,15,
scooby_state_7ff3f18753a8|14|1 15,0,0,0,0,0,0,0,0,0,0,0,0,0,0,15,
scooby_state_7ff3f18753a8|17|1 15,0,0,0,0,0,0,0,0,0,0,0,0,0,0,15,
scooby_state_7ff3f1870151|26|1 15,0,0,0,0,0,0,0,0,0,0,0,0,0,0,15,
scooby_state_7ff3f1870151|61|1 15,0,0,0,0,0,0,0,0,0,0,0,0,0,0,15,
scooby_state_7ff3f1870151|10|1 15,0,0,0,0,0,0,0,0,0,0,0,0,0,0,15,
scooby_state_7ff3f1870151|41|1 15,0,0,0,0,0,0,0,0,0,0,0,0,0,0,15,
scooby_state_7ff3f18753a8|23|1 15,0,0,0,0,0,0,0,0,0,0,0,0,0,0,15,
scooby_state_7ff3f18753a8|20|1 15,0,0,0,0,0,0,0,0,0,0,0,0,0,0,15,
scooby_state_7ff3f1870151|52|1 15,0,0,0,0,0,0,0,0,0,0,0,0,0,0,15,
scooby_state_7ff3f18753a8|26|1 15,0,0,0,0,0,0,0,0,0,0,0,0,0,0,15,
scooby_state_7ff3f1870151|39|1 14,0,0,0,0,0,0,0,0,0,0,0,0,0,0,14,
scooby_state_7ff3f18753a8|54|1 14,0,0,0,0,0,0,0,0,0,0,0,0,0,0,14,
scooby_state_7ff3f1870151|49|1 14,0,0,0,0,0,0,0,0,0,0,0,0,0,0,14,
scooby_state_7ff3f1870151|63|1 14,0,0,0,0,0,0,0,0,0,0,0,0,0,0,14,
scooby_state_7ff3f18753a8|22|1 14,0,0,0,0,0,0,0,0,0,0,0,0,0,0,14,
scooby_state_7ff3f1870151|20|1 14,0,0,0,0,0,0,0,0,0,0,0,0,0,0,14,
scooby_state_7ff3f18753a8|60|1 14,0,0,0,0,0,0,0,0,0,0,0,0,0,0,14,
scooby_state_7ff3f1870151|37|1 14,0,0,0,0,0,0,0,0,0,0,0,0,0,0,14,
scooby_state_7ff3f18753a8|25|1 14,0,0,0,0,0,0,0,0,0,0,0,0,0,0,14,
scooby_state_7ff3f18753a8|0|0 14,0,0,0,0,0,0,0,0,0,0,0,0,0,0,14,
scooby_state_7ff3f1870151|1|1 14,0,0,0,0,0,0,0,0,0,0,0,0,0,0,14,
scooby_state_7ff3f1870151|18|1 14,0,0,0,0,0,0,0,0,0,0,0,0,0,0,14,
scooby_state_7ff3f18753a8|19|1 14,0,0,0,0,0,0,0,0,0,0,0,0,0,0,14,
scooby_state_7ff3f18753a8|43|1 14,0,0,0,0,0,0,0,0,0,0,0,0,0,0,14,
scooby_state_7ff3f18753a8|16|1 14,0,0,0,0,0,0,0,0,0,0,0,0,0,0,14,
scooby_state_7ff3f18753a8|13|1 14,0,0,0,0,0,0,0,0,0,0,0,0,0,0,14,
scooby_state_7ff3f18753a8|11|1 14,0,0,0,0,0,0,0,0,0,0,0,0,0,0,14,
scooby_state_7ff3f18753a8|35|1 13,0,0,0,0,0,1,0,0,0,0,0,0,0,0,14,
scooby_state_7ff3f1870151|19|1 14,0,0,0,0,0,0,0,0,0,0,0,0,0,0,14,
scooby_state_7ff3f1870151|11|1 14,0,0,0,0,0,0,0,0,0,0,0,0,0,0,14,
scooby_state_7ff3f18753a8|45|1 14,0,0,0,0,0,0,0,0,0,0,0,0,0,0,14,
scooby_state_7ff3f18753a8|32|1 14,0,0,0,0,0,0,0,0,0,0,0,0,0,0,14,
scooby_state_7ff3f1870151|32|1 14,0,0,0,0,0,0,0,0,0,0,0,0,0,0,14,
scooby_state_7ff3f1870151|58|1 14,0,0,0,0,0,0,0,0,0,0,0,0,0,0,14,
scooby_state_7ff3f1870151|7|1 14,0,0,0,0,0,0,0,0,0,0,0,0,0,0,14,
scooby_state_7ff3f18753a8|29|1 14,0,0,0,0,0,0,0,0,0,0,0,0,0,0,14,
scooby_state_7ff3f18753a8|28|1 14,0,0,0,0,0,0,0,0,0,0,0,0,0,0,14,
scooby_state_7ff3f18753a8|57|1 14,0,0,0,0,0,0,0,0,0,0,0,0,0,0,14,
scooby_state_7ff3f18753a8|38|1 14,0,0,0,0,0,0,0,0,0,0,0,0,0,0,14,
scooby_state_7ff3f1870151|51|1 14,0,0,0,0,0,0,0,0,0,0,0,0,0,0,14,
scooby_state_7ff3f18753a8|41|1 14,0,0,0,0,0,0,0,0,0,0,0,0,0,0,14,
scooby_state_7ff3f18753a8|37|1 13,0,0,0,0,0,0,0,0,0,0,0,0,0,0,13,
scooby_state_7ff3f1870151|16|1 13,0,0,0,0,0,0,0,0,0,0,0,0,0,0,13,
scooby_state_7ff3f18753a8|6|1 13,0,0,0,0,0,0,0,0,0,0,0,0,0,0,13,
scooby_state_7ff3f1870151|27|1 13,0,0,0,0,0,0,0,0,0,0,0,0,0,0,13,
scooby_state_7ff3f1870151|42|1 13,0,0,0,0,0,0,0,0,0,0,0,0,0,0,13,
scooby_state_7ff3f18753a8|58|1 13,0,0,0,0,0,0,0,0,0,0,0,0,0,0,13,
scooby_state_7ff3f1870151|44|1 13,0,0,0,0,0,0,0,0,0,0,0,0,0,0,13,
scooby_state_7ff3f1870151|50|1 13,0,0,0,0,0,0,0,0,0,0,0,0,0,0,13,
scooby_state_7ff3f1870151|4|1 13,0,0,0,0,0,0,0,0,0,0,0,0,0,0,13,
scooby_state_7ff3f18753a8|12|1 13,0,0,0,0,0,0,0,0,0,0,0,0,0,0,13,
scooby_state_7ff3f18753a8|24|1 13,0,0,0,0,0,0,0,0,0,0,0,0,0,0,13,
scooby_state_7ff3f18753a8|53|1 13,0,0,0,0,0,0,0,0,0,0,0,0,0,0,13,
scooby_state_7ff3f18753a8|63|1 13,0,0,0,0,0,0,0,0,0,0,0,0,0,0,13,
scooby_state_7ff3f18753a8|39|1 13,0,0,0,0,0,0,0,0,0,0,0,0,0,0,13,
scooby_state_7ff3f18753a8|36|1 13,0,0,0,0,0,0,0,0,0,0,0,0,0,0,13,
scooby_state_7ff3f1870151|29|1 13,0,0,0,0,0,0,0,0,0,0,0,0,0,0,13,
scooby_state_7ff3f18753a8|27|1 13,0,0,0,0,0,0,0,0,0,0,0,0,0,0,13,
scooby_state_7ff3f18753a8|21|1 13,0,0,0,0,0,0,0,0,0,0,0,0,0,0,13,
scooby_state_7ff3f18753a8|15|1 13,0,0,0,0,0,0,0,0,0,0,0,0,0,0,13,
scooby_state_7ff3f18753a8|8|1 13,0,0,0,0,0,0,0,0,0,0,0,0,0,0,13,
scooby_state_7ff3f18753a8|5|1 13,0,0,0,0,0,0,0,0,0,0,0,0,0,0,13,
scooby_state_7ff3f18753a8|3|1 13,0,0,0,0,0,0,0,0,0,0,0,0,0,0,13,
scooby_state_7ff3f18753a8|48|1 13,0,0,0,0,0,0,0,0,0,0,0,0,0,0,13,
scooby_state_7ff3f18753a8|55|1 13,0,0,0,0,0,0,0,0,0,0,0,0,0,0,13,
scooby_state_7ff3f18753a8|1|1 13,0,0,0,0,0,0,0,0,0,0,0,0,0,0,13,
scooby_state_7ff3f18753a8|44|1 13,0,0,0,0,0,0,0,0,0,0,0,0,0,0,13,
scooby_state_7ff3f18753a8|42|1 13,0,0,0,0,0,0,0,0,0,0,0,0,0,0,13,
scooby_state_7ff3f1870151|54|1 13,0,0,0,0,0,0,0,0,0,0,0,0,0,0,13,
scooby_state_7ff3f18753a8|34|1 13,0,0,0,0,0,0,0,0,0,0,0,0,0,0,13,
scooby_state_7ff3f18753a8|2|1 13,0,0,0,0,0,0,0,0,0,0,0,0,0,0,13,
scooby_state_7ff3f18753a8|30|1 13,0,0,0,0,0,0,0,0,0,0,0,0,0,0,13,
scooby_state_7ff3f18753a8|18|1 13,0,0,0,0,0,0,0,0,0,0,0,0,0,0,13,
scooby_state_7ff3f18753a8|31|1 13,0,0,0,0,0,0,0,0,0,0,0,0,0,0,13,
scooby_state_7ff3f18753a8|40|1 13,0,0,0,0,0,0,0,0,0,0,0,0,0,0,13,
scooby_state_7ff3f18753a8|47|1 13,0,0,0,0,0,0,0,0,0,0,0,0,0,0,13,
scooby_state_7ff3f18753a8|9|1 13,0,0,0,0,0,0,0,0,0,0,0,0,0,0,13,
scooby_state_7ff3f1870151|9|1 13,0,0,0,0,0,0,0,0,0,0,0,0,0,0,13,
scooby_state_7ff3f18753a8|50|1 13,0,0,0,0,0,0,0,0,0,0,0,0,0,0,13,
scooby_state_7ff3f18753a8|56|1 13,0,0,0,0,0,0,0,0,0,0,0,0,0,0,13,
scooby_state_7ff3f18753a8|10|1 13,0,0,0,0,0,0,0,0,0,0,0,0,0,0,13,
scooby_state_7ff3f18753a8|33|1 13,0,0,0,0,0,0,0,0,0,0,0,0,0,0,13,
scooby_state_7ff3f18753a8|61|1 13,0,0,0,0,0,0,0,0,0,0,0,0,0,0,13,
scooby_state_7ff3f18753a8|59|1 13,0,0,0,0,0,0,0,0,0,0,0,0,0,0,13,
scooby_state_7ff3f18753a8|51|1 13,0,0,0,0,0,0,0,0,0,0,0,0,0,0,13,
scooby_state_7ff3f1870151|12|1 13,0,0,0,0,0,0,0,0,0,0,0,0,0,0,13,
scooby_state_7ff3f18753a8|46|1 12,0,0,0,0,0,0,0,0,0,0,0,0,0,0,12,
scooby_state_7ff3f18753a8|4|1 12,0,0,0,0,0,0,0,0,0,0,0,0,0,0,12,
scooby_state_7ff3f18753a8|49|1 12,0,0,0,0,0,0,0,0,0,0,0,0,0,0,12,
scooby_state_7ff3f1870151|59|1 12,0,0,0,0,0,0,0,0,0,0,0,0,0,0,12,
scooby_state_7ff3dd11dad1|55|-4 1,0,0,0,1,1,1,1,1,6,0,0,0,0,0,12,
scooby_state_7ff3dd1208a1|56|6 6,0,0,0,1,1,4,0,0,0,0,0,0,0,0,12,
scooby_state_7ff3dd11dac4|59|3 12,0,0,0,0,0,0,0,0,0,0,0,0,0,0,12,
scooby_state_7ff3f1870151|21|1 12,0,0,0,0,0,0,0,0,0,0,0,0,0,0,12,
scooby_state_7ff3f18753a8|7|1 12,0,0,0,0,0,0,0,0,0,0,0,0,0,0,12,
scooby_state_7ff3dd11dac4|50|3 12,0,0,0,0,0,0,0,0,0,0,0,0,0,0,12,
scooby_state_7ff3dd1208a1|47|0 6,0,0,0,1,1,4,0,0,0,0,0,0,0,0,12,
scooby_state_7ff3f1870151|40|1 12,0,0,0,0,0,0,0,0,0,0,0,0,0,0,12,
scooby_state_7ff3f1870151|3|1 12,0,0,0,0,0,0,0,0,0,0,0,0,0,0,12,
scooby_state_7ff3f18753a8|62|1 12,0,0,0,0,0,0,0,0,0,0,0,0,0,0,12,
scooby_state_7ff3f1870151|23|1 12,0,0,0,0,0,0,0,0,0,0,0,0,0,0,12,
scooby_state_7ff3f18753a8|52|1 12,0,0,0,0,0,0,0,0,0,0,0,0,0,0,12,
scooby_state_7ff3f1870151|60|1 12,0,0,0,0,0,0,0,0,0,0,0,0,0,0,12,
scooby_state_7ff3f1870151|43|1 11,0,0,0,0,0,0,1,0,0,0,0,0,0,0,12,
scooby_state_7ff3f1870151|6|1 12,0,0,0,0,0,0,0,0,0,0,0,0,0,0,12,
scooby_state_55ec3b9539c1|1|0 11,0,0,0,0,0,0,0,0,0,0,0,0,0,0,11,
scooby_state_55ec3b953ac0|37|1 10,0,0,0,0,0,0,1,0,0,0,0,0,0,0,11,
scooby_state_7ff3dd0a1994|45|0 11,0,0,0,0,0,0,0,0,0,0,0,0,0,0,11,
scooby_state_55ec3b9539a9|14|1 11,0,0,0,0,0,0,0,0,0,0,0,0,0,0,11,
scooby_state_7ff3f1870151|38|1 11,0,0,0,0,0,0,0,0,0,0,0,0,0,0,11,
scooby_state_55ec3b9539c1|55|1 11,0,0,0,0,0,0,0,0,0,0,0,0,0,0,11,
scooby_state_55ec3b953ac0|40|1 11,0,0,0,0,0,0,0,0,0,0,0,0,0,0,11,
scooby_state_55ec3b9539c1|53|1 11,0,0,0,0,0,0,0,0,0,0,0,0,0,0,11,
scooby_state_55ec3b9539c1|42|1 11,0,0,0,0,0,0,0,0,0,0,0,0,0,0,11,
scooby_state_7ff3f1870151|33|1 11,0,0,0,0,0,0,0,0,0,0,0,0,0,0,11,
scooby_state_55ec3b953ac0|45|1 11,0,0,0,0,0,0,0,0,0,0,0,0,0,0,11,
scooby_state_55ec3b9539a9|61|1 11,0,0,0,0,0,0,0,0,0,0,0,0,0,0,11,
scooby_state_55ec3b9539c1|51|1 11,0,0,0,0,0,0,0,0,0,0,0,0,0,0,11,
scooby_state_55ec3b953ac0|47|1 11,0,0,0,0,0,0,0,0,0,0,0,0,0,0,11,
scooby_state_55ec3b9539a9|11|1 11,0,0,0,0,0,0,0,0,0,0,0,0,0,0,11,
scooby_state_55ec3b9539c1|48|1 11,0,0,0,0,0,0,0,0,0,0,0,0,0,0,11,
scooby_state_55ec3b953ac0|39|1 11,0,0,0,0,0,0,0,0,0,0,0,0,0,0,11,
scooby_state_55ec3b9539a9|9|1 11,0,0,0,0,0,0,0,0,0,0,0,0,0,0,11,
scooby_state_55ec3b953ac0|49|1 11,0,0,0,0,0,0,0,0,0,0,0,0,0,0,11,
scooby_state_55ec3b9539a9|62|1 11,0,0,0,0,0,0,0,0,0,0,0,0,0,0,11,
scooby_state_55ec3b9539a9|13|1 10,0,0,0,0,0,0,0,0,0,0,0,0,0,1,11,
scooby_state_55ec3b953ac0|42|1 11,0,0,0,0,0,0,0,0,0,0,0,0,0,0,11,
scooby_state_55ec3b9539a9|55|1 11,0,0,0,0,0,0,0,0,0,0,0,0,0,0,11,
scooby_state_55ec3b9539c1|45|1 11,0,0,0,0,0,0,0,0,0,0,0,0,0,0,11,
scooby_state_55ec3b9539c1|46|1 11,0,0,0,0,0,0,0,0,0,0,0,0,0,0,11,
scooby_state_55ec3b953c42|15|0 11,0,0,0,0,0,0,0,0,0,0,0,0,0,0,11,
scooby_state_55ec3b9539a9|8|1 11,0,0,0,0,0,0,0,0,0,0,0,0,0,0,11,
scooby_state_55ec3b9539a9|19|1 11,0,0,0,0,0,0,0,0,0,0,0,0,0,0,11,
scooby_state_55ec3b9539c1|50|1 11,0,0,0,0,0,0,0,0,0,0,0,0,0,0,11,
scooby_state_55ec3b9539c1|49|1 11,0,0,0,0,0,0,0,0,0,0,0,0,0,0,11,
scooby_state_55ec3b9539c1|36|1 11,0,0,0,0,0,0,0,0,0,0,0,0,0,0,11,
scooby_state_55ec3b9539a9|56|1 11,0,0,0,0,0,0,0,0,0,0,0,0,0,0,11,
scooby_state_55ec3b9539d1|12|0 11,0,0,0,0,0,0,0,0,0,0,0,0,0,0,11,
scooby_state_55ec3b9539a9|16|1 11,0,0,0,0,0,0,0,0,0,0,0,0,0,0,11,
scooby_state_55ec3b9539a9|3|1 11,0,0,0,0,0,0,0,0,0,0,0,0,0,0,11,
scooby_state_55ec3b953ac0|36|2 11,0,0,0,0,0,0,0,0,0,0,0,0,0,0,11,
scooby_state_55ec3b9539a9|6|1 11,0,0,0,0,0,0,0,0,0,0,0,0,0,0,11,
scooby_state_55ec3b9539c1|60|1 11,0,0,0,0,0,0,0,0,0,0,0,0,0,0,11,
scooby_state_55ec3b953ac0|43|1 11,0,0,0,0,0,0,0,0,0,0,0,0,0,0,11,
scooby_state_55ec3b9539c1|0|0 11,0,0,0,0,0,0,0,0,0,0,0,0,0,0,11,
scooby_state_55ec3b953464|61|-1 11,0,0,0,0,0,0,0,0,0,0,0,0,0,0,11,
scooby_state_55ec3b9539a9|51|1 11,0,0,0,0,0,0,0,0,0,0,0,0,0,0,11,
scooby_state_55ec3b9539c1|1|1 11,0,0,0,0,0,0,0,0,0,0,0,0,0,0,11,
scooby_state_7ff3f1870151|14|1 11,0,0,0,0,0,0,0,0,0,0,0,0,0,0,11,
scooby_state_55ec3b9539c1|47|1 11,0,0,0,0,0,0,0,0,0,0,0,0,0,0,11,
scooby_state_55ec3b9539a9|15|1 11,0,0,0,0,0,0,0,0,0,0,0,0,0,0,11,
scooby_state_55ec3b9539c1|37|1 11,0,0,0,0,0,0,0,0,0,0,0,0,0,0,11,
scooby_state_7ff3f1870151|25|1 11,0,0,0,0,0,0,0,0,0,0,0,0,0,0,11,
scooby_state_55ec3b953ac0|46|1 11,0,0,0,0,0,0,0,0,0,0,0,0,0,0,11,
scooby_state_55ec3b953ac0|50|1 11,0,0,0,0,0,0,0,0,0,0,0,0,0,0,11,
scooby_state_55ec3b953bae|53|1 11,0,0,0,0,0,0,0,0,0,0,0,0,0,0,11,
scooby_state_55ec3b9539a9|22|6 11,0,0,0,0,0,0,0,0,0,0,0,0,0,0,11,
scooby_state_55ec3b9539a9|53|1 11,0,0,0,0,0,0,0,0,0,0,0,0,0,0,11,
scooby_state_55ec3b9539a9|22|1 11,0,0,0,0,0,0,0,0,0,0,0,0,0,0,11,
scooby_state_55ec3b9539a9|52|1 11,0,0,0,0,0,0,0,0,0,0,0,0,0,0,11,
scooby_state_55ec3b953b2d|52|2 11,0,0,0,0,0,0,0,0,0,0,0,0,0,0,11,
scooby_state_55ec3b9539c1|35|1 11,0,0,0,0,0,0,0,0,0,0,0,0,0,0,11,
scooby_state_55ec3b9538bf|4|0 11,0,0,0,0,0,0,0,0,0,0,0,0,0,0,11,
scooby_state_55ec3b9539a9|7|1 11,0,0,0,0,0,0,0,0,0,0,0,0,0,0,11,
scooby_state_55ec3b9539c1|56|1 11,0,0,0,0,0,0,0,0,0,0,0,0,0,0,11,
scooby_state_55ec3b9539c1|43|1 11,0,0,0,0,0,0,0,0,0,0,0,0,0,0,11,
scooby_state_55ec3b9534f4|62|0 11,0,0,0,0,0,0,0,0,0,0,0,0,0,0,11,
scooby_state_7ff3dd12089a|56|0 11,0,0,0,0,0,0,0,0,0,0,0,0,0,0,11,
scooby_state_55ec3b9539a9|59|1 11,0,0,0,0,0,0,0,0,0,0,0,0,0,0,11,
scooby_state_55ec3b953ac0|48|1 11,0,0,0,0,0,0,0,0,0,0,0,0,0,0,11,
scooby_state_55ec3b9539a9|1|1 11,0,0,0,0,0,0,0,0,0,0,0,0,0,0,11,
scooby_state_55ec3b9539c1|44|1 11,0,0,0,0,0,0,0,0,0,0,0,0,0,0,11,
scooby_state_55ec3b9539a9|63|1 11,0,0,0,0,0,0,0,0,0,0,0,0,0,0,11,
scooby_state_55ec3b953ac0|44|1 11,0,0,0,0,0,0,0,0,0,0,0,0,0,0,11,
scooby_state_55ec3b9539c1|61|1 11,0,0,0,0,0,0,0,0,0,0,0,0,0,0,11,
scooby_state_55ec3b953ac0|41|1 11,0,0,0,0,0,0,0,0,0,0,0,0,0,0,11,
scooby_state_7ff3dd263384|3|0 11,0,0,0,0,0,0,0,0,0,0,0,0,0,0,11,
scooby_state_7ff3dd2cb608|11|0 11,0,0,0,0,0,0,0,0,0,0,0,0,0,0,11,
scooby_state_55ec3b9539a9|12|1 11,0,0,0,0,0,0,0,0,0,0,0,0,0,0,11,
scooby_state_55ec3b953ac0|38|1 11,0,0,0,0,0,0,0,0,0,0,0,0,0,0,11,
scooby_state_55ec3b9539c1|59|1 11,0,0,0,0,0,0,0,0,0,0,0,0,0,0,11,
scooby_state_55ec3b953a91|20|0 11,0,0,0,0,0,0,0,0,0,0,0,0,0,0,11,
scooby_state_55ec3b9539a9|60|1 11,0,0,0,0,0,0,0,0,0,0,0,0,0,0,11,
scooby_state_55ec3b9539c1|57|1 11,0,0,0,0,0,0,0,0,0,0,0,0,0,0,11,
scooby_state_55ec3b9539c1|58|1 11,0,0,0,0,0,0,0,0,0,0,0,0,0,0,11,
scooby_state_55ec3b9539a9|54|1 11,0,0,0,0,0,0,0,0,0,0,0,0,0,0,11,
scooby_state_55ec3b9539c1|54|1 11,0,0,0,0,0,0,0,0,0,0,0,0,0,0,11,
scooby_state_55ec3b9539c1|52|1 11,0,0,0,0,0,0,0,0,0,0,0,0,0,0,11,
scooby_state_55ec3b9539a9|2|1 11,0,0,0,0,0,0,0,0,0,0,0,0,0,0,11,
scooby_state_55ec3b9539a9|10|1 11,0,0,0,0,0,0,0,0,0,0,0,0,0,0,11,
scooby_state_55ec3b9539a9|4|1 11,0,0,0,0,0,0,0,0,0,0,0,0,0,0,11,
scooby_state_55ec3b9539c1|41|1 11,0,0,0,0,0,0,0,0,0,0,0,0,0,0,11,
scooby_state_55ec3b9539a9|18|1 11,0,0,0,0,0,0,0,0,0,0,0,0,0,0,11,
scooby_state_55ec3b9539a9|58|1 11,0,0,0,0,0,0,0,0,0,0,0,0,0,0,11,
scooby_state_55ec3b9539c1|39|1 11,0,0,0,0,0,0,0,0,0,0,0,0,0,0,11,
scooby_state_55ec3b9539a9|0|0 11,0,0,0,0,0,0,0,0,0,0,0,0,0,0,11,
scooby_state_55ec3b9539a9|20|1 11,0,0,0,0,0,0,0,0,0,0,0,0,0,0,11,
scooby_state_55ec3b9539c1|63|1 11,0,0,0,0,0,0,0,0,0,0,0,0,0,0,11,
scooby_state_55ec3b9539a9|21|1 11,0,0,0,0,0,0,0,0,0,0,0,0,0,0,11,
scooby_state_55ec3b9539a9|57|1 11,0,0,0,0,0,0,0,0,0,0,0,0,0,0,11,
scooby_state_55ec3b9539c1|40|1 11,0,0,0,0,0,0,0,0,0,0,0,0,0,0,11,
scooby_state_7ff3dd0a1d14|52|7 11,0,0,0,0,0,0,0,0,0,0,0,0,0,0,11,
scooby_state_55ec3b9539a9|17|1 11,0,0,0,0,0,0,0,0,0,0,0,0,0,0,11,
scooby_state_55ec3b9539a9|5|1 11,0,0,0,0,0,0,0,0,0,0,0,0,0,0,11,
scooby_state_55ec3b9539c1|38|1 11,0,0,0,0,0,0,0,0,0,0,0,0,0,0,11,
scooby_state_55ec3b9539c1|62|1 11,0,0,0,0,0,0,0,0,0,0,0,0,0,0,11,
scooby_state_7ff3f1870151|31|1 10,0,0,0,0,0,0,0,0,0,0,0,0,0,0,10,
scooby_state_7ff3f1870151|15|1 10,0,0,0,0,0,0,0,0,0,0,0,0,0,0,10,
scooby_state_7ff3f1870151|17|1 10,0,0,0,0,0,0,0,0,0,0,0,0,0,0,10,
scooby_state_7ff3f1870151|0|0 9,0,0,0,0,0,0,0,0,0,0,0,0,0,0,9,
scooby_state_7f2e6c20e3a8|35|1 9,0,0,0,0,0,0,0,0,0,0,0,0,0,0,9,
scooby_state_7f2e6c20e3a8|26|1 9,0,0,0,0,0,0,0,0,0,0,0,0,0,0,9,
scooby_state_7f2e6c20e3a8|32|1 9,0,0,0,0,0,0,0,0,0,0,0,0,0,0,9,
scooby_state_7f2e6c20e3a8|20|1 9,0,0,0,0,0,0,0,0,0,0,0,0,0,0,9,
scooby_state_7f2e6c20e3a8|14|1 9,0,0,0,0,0,0,0,0,0,0,0,0,0,0,9,
scooby_state_7f2e6c20e3a8|11|1 9,0,0,0,0,0,0,0,0,0,0,0,0,0,0,9,
scooby_state_7ff3f1870151|8|1 9,0,0,0,0,0,0,0,0,0,0,0,0,0,0,9,
scooby_state_7f2e6c20e3a8|38|1 9,0,0,0,0,0,0,0,0,0,0,0,0,0,0,9,
scooby_state_7f2e6c209151|24|1 5,0,0,4,0,0,0,0,0,0,0,0,0,0,0,9,
scooby_state_7f2e6c20e3a8|17|1 9,0,0,0,0,0,0,0,0,0,0,0,0,0,0,9,
scooby_state_7f2e6c20e3a8|29|1 9,0,0,0,0,0,0,0,0,0,0,0,0,0,0,9,
scooby_state_7f2e6c20e3a8|23|1 9,0,0,0,0,0,0,0,0,0,0,0,0,0,0,9,
scooby_state_7f2e6c20e3a8|41|1 9,0,0,0,0,0,0,0,0,0,0,0,0,0,0,9,
scooby_state_7f2e6c20e3a8|13|1 8,0,0,0,0,0,0,0,0,0,0,0,0,0,0,8,
scooby_state_7ff3f1875544|24|1 8,0,0,0,0,0,0,0,0,0,0,0,0,0,0,8,
scooby_state_7f2e6c20e3a8|19|1 8,0,0,0,0,0,0,0,0,0,0,0,0,0,0,8,
scooby_state_7f2e6c20e3a8|1|1 8,0,0,0,0,0,0,0,0,0,0,0,0,0,0,8,
scooby_state_7f2e6c20e3a8|2|1 8,0,0,0,0,0,0,0,0,0,0,0,0,0,0,8,
scooby_state_7f2e6c20e3a8|31|1 8,0,0,0,0,0,0,0,0,0,0,0,0,0,0,8,
scooby_state_7f2e6c20e3a8|22|1 8,0,0,0,0,0,0,0,0,0,0,0,0,0,0,8,
scooby_state_7f2e6c20e3a8|44|1 8,0,0,0,0,0,0,0,0,0,0,0,0,0,0,8,
scooby_state_7f2e6c20e3a8|60|1 8,0,0,0,0,0,0,0,0,0,0,0,0,0,0,8,
scooby_state_7f2e6c20e3a8|8|1 8,0,0,0,0,0,0,0,0,0,0,0,0,0,0,8,
scooby_state_7ff3f1875036|2|1 8,0,0,0,0,0,0,0,0,0,0,0,0,0,0,8,
scooby_state_7ff3f1875036|47|1 8,0,0,0,0,0,0,0,0,0,0,0,0,0,0,8,
scooby_state_7f2e6c20e3a8|28|1 8,0,0,0,0,0,0,0,0,0,0,0,0,0,0,8,
scooby_state_7f2e6c20e3a8|47|1 8,0,0,0,0,0,0,0,0,0,0,0,0,0,0,8,
scooby_state_7f2e6c20e3a8|40|1 8,0,0,0,0,0,0,0,0,0,0,0,0,0,0,8,
scooby_state_7ff3f1870151|13|1 8,0,0,0,0,0,0,0,0,0,0,0,0,0,0,8,
scooby_state_7f2e6c20e3a8|0|0 8,0,0,0,0,0,0,0,0,0,0,0,0,0,0,8,
scooby_state_7f2e6c20e3a8|16|1 8,0,0,0,0,0,0,0,0,0,0,0,0,0,0,8,
scooby_state_7ff3f1875036|45|1 8,0,0,0,0,0,0,0,0,0,0,0,0,0,0,8,
scooby_state_7ff3f1875036|49|1 8,0,0,0,0,0,0,0,0,0,0,0,0,0,0,8,
scooby_state_7ff3f1875036|50|1 8,0,0,0,0,0,0,0,0,0,0,0,0,0,0,8,
scooby_state_7ff3f1875036|3|1 8,0,0,0,0,0,0,0,0,0,0,0,0,0,0,8,
scooby_state_7ff3f1875036|62|1 8,0,0,0,0,0,0,0,0,0,0,0,0,0,0,8,
scooby_state_7ff3f1875036|46|1 8,0,0,0,0,0,0,0,0,0,0,0,0,0,0,8,
scooby_state_7ff3f1870128|63|0 8,0,0,0,0,0,0,0,0,0,0,0,0,0,0,8,
scooby_state_7f2e6c209151|22|1 3,0,0,5,0,0,0,0,0,0,0,0,0,0,0,8,
scooby_state_7f2e6c20e3a8|54|1 8,0,0,0,0,0,0,0,0,0,0,0,0,0,0,8,
scooby_state_7f2e6c20e3a8|57|1 8,0,0,0,0,0,0,0,0,0,0,0,0,0,0,8,
scooby_state_7f2e6c20e3a8|34|1 8,0,0,0,0,0,0,0,0,0,0,0,0,0,0,8,
scooby_state_7ff3f1875544|27|1 7,0,0,0,0,1,0,0,0,0,0,0,0,0,0,8,
scooby_state_7ff3f1875036|48|1 8,0,0,0,0,0,0,0,0,0,0,0,0,0,0,8,
scooby_state_7ff3f1875036|44|1 8,0,0,0,0,0,0,0,0,0,0,0,0,0,0,8,
scooby_state_7ff3f1875544|18|1 8,0,0,0,0,0,0,0,0,0,0,0,0,0,0,8,
scooby_state_7ff3f1875036|4|1 8,0,0,0,0,0,0,0,0,0,0,0,0,0,0,8,
scooby_state_7f2e6c20e3a8|5|1 8,0,0,0,0,0,0,0,0,0,0,0,0,0,0,8,
scooby_state_7f2e6c20e3a8|63|1 8,0,0,0,0,0,0,0,0,0,0,0,0,0,0,8,
scooby_state_7f2e6c20e3a8|37|1 8,0,0,0,0,0,0,0,0,0,0,0,0,0,0,8,
scooby_state_7ff3f1875544|21|1 8,0,0,0,0,0,0,0,0,0,0,0,0,0,0,8,
scooby_state_7ff3f186f268|63|1 1,0,1,0,0,0,1,1,1,0,1,0,0,1,1,8,
scooby_state_7ff3f1875036|63|1 8,0,0,0,0,0,0,0,0,0,0,0,0,0,0,8,
scooby_state_7f2e6c20e3a8|43|1 8,0,0,0,0,0,0,0,0,0,0,0,0,0,0,8,
scooby_state_7ff3f1875036|51|1 8,0,0,0,0,0,0,0,0,0,0,0,0,0,0,8,
scooby_state_7f2e6c20e3a8|25|1 8,0,0,0,0,0,0,0,0,0,0,0,0,0,0,8,
scooby_state_7f2e6c20e3a8|27|1 7,0,0,0,0,0,0,0,0,0,0,0,0,0,0,7,
scooby_state_7ff3f1875036|57|1 7,0,0,0,0,0,0,0,0,0,0,0,0,0,0,7,
scooby_state_7ff3f1875036|55|1 7,0,0,0,0,0,0,0,0,0,0,0,0,0,0,7,
scooby_state_7ff3f1875036|52|1 7,0,0,0,0,0,0,0,0,0,0,0,0,0,0,7,
scooby_state_7ff3f1875036|58|1 7,0,0,0,0,0,0,0,0,0,0,0,0,0,0,7,
scooby_state_7ff3f1869239|3|1 7,0,0,0,0,0,0,0,0,0,0,0,0,0,0,7,
scooby_state_7ff3f1875544|55|1 7,0,0,0,0,0,0,0,0,0,0,0,0,0,0,7,
scooby_state_7ff3f186f78d|55|1 3,1,0,0,0,1,0,0,0,0,0,0,0,0,2,7,
scooby_state_7ff3f1875036|53|1 7,0,0,0,0,0,0,0,0,0,0,0,0,0,0,7,
scooby_state_7ff3f1875036|61|1 7,0,0,0,0,0,0,0,0,0,0,0,0,0,0,7,
scooby_state_7ff3f1875544|58|1 6,0,0,0,0,1,0,0,0,0,0,0,0,0,0,7,
scooby_state_7ff3f1875544|61|1 7,0,0,0,0,0,0,0,0,0,0,0,0,0,0,7,
scooby_state_7f2e6c20e3a8|53|1 7,0,0,0,0,0,0,0,0,0,0,0,0,0,0,7,
scooby_state_7ff3f1875036|39|1 7,0,0,0,0,0,0,0,0,0,0,0,0,0,0,7,
scooby_state_7f2e6c20e3a8|50|1 7,0,0,0,0,0,0,0,0,0,0,0,0,0,0,7,
scooby_state_7ff3f1875544|62|1 7,0,0,0,0,0,0,0,0,0,0,0,0,0,0,7,
scooby_state_7ff3f1875544|7|1 7,0,0,0,0,0,0,0,0,0,0,0,0,0,0,7,
scooby_state_7ff3f1875544|13|1 7,0,0,0,0,0,0,0,0,0,0,0,0,0,0,7,
scooby_state_7ff3f1875544|25|1 7,0,0,0,0,0,0,0,0,0,0,0,0,0,0,7,
scooby_state_7f2e6c20e3a8|56|1 7,0,0,0,0,0,0,0,0,0,0,0,0,0,0,7,
scooby_state_7ff3f1875544|42|1 7,0,0,0,0,0,0,0,0,0,0,0,0,0,0,7,
scooby_state_7ff3f1875544|31|1 7,0,0,0,0,0,0,0,0,0,0,0,0,0,0,7,
scooby_state_7ff3f1875544|34|1 7,0,0,0,0,0,0,0,0,0,0,0,0,0,0,7,
scooby_state_7ff3f1875544|16|1 7,0,0,0,0,0,0,0,0,0,0,0,0,0,0,7,
scooby_state_7ff3f1875036|59|1 7,0,0,0,0,0,0,0,0,0,0,0,0,0,0,7,
scooby_state_7ff3f1875544|37|1 7,0,0,0,0,0,0,0,0,0,0,0,0,0,0,7,
scooby_state_7ff3f1875544|40|1 7,0,0,0,0,0,0,0,0,0,0,0,0,0,0,7,
scooby_state_7f2e6c20e3a8|36|1 7,0,0,0,0,0,0,0,0,0,0,0,0,0,0,7,
scooby_state_7ff3f1875544|12|1 7,0,0,0,0,0,0,0,0,0,0,0,0,0,0,7,
scooby_state_7ff3f1875544|43|1 7,0,0,0,0,0,0,0,0,0,0,0,0,0,0,7,
scooby_state_7ff3f1869239|2|1 7,0,0,0,0,0,0,0,0,0,0,0,0,0,0,7,
scooby_state_7ff3f1875544|46|1 7,0,0,0,0,0,0,0,0,0,0,0,0,0,0,7,
scooby_state_7f2e6c20e3a8|12|1 7,0,0,0,0,0,0,0,0,0,0,0,0,0,0,7,
scooby_state_7ff3f1875544|52|1 7,0,0,0,0,0,0,0,0,0,0,0,0,0,0,7,
scooby_state_7ff3f1875544|39|1 7,0,0,0,0,0,0,0,0,0,0,0,0,0,0,7,
scooby_state_7f2e6c20e3a8|45|1 7,0,0,0,0,0,0,0,0,0,0,0,0,0,0,7,
scooby_state_7f2e6c20e3a8|59|1 7,0,0,0,0,0,0,0,0,0,0,0,0,0,0,7,
scooby_state_7ff3f1875036|42|1 7,0,0,0,0,0,0,0,0,0,0,0,0,0,0,7,
scooby_state_7f2e6c20e3a8|46|1 7,0,0,0,0,0,0,0,0,0,0,0,0,0,0,7,
scooby_state_7f2e6c20e3a8|21|1 7,0,0,0,0,0,0,0,0,0,0,0,0,0,0,7,
scooby_state_7ff3f1875544|33|1 7,0,0,0,0,0,0,0,0,0,0,0,0,0,0,7,
scooby_state_7f2e6c20e3a8|6|1 7,0,0,0,0,0,0,0,0,0,0,0,0,0,0,7,
scooby_state_7ff3f1875036|38|1 7,0,0,0,0,0,0,0,0,0,0,0,0,0,0,7,
scooby_state_7f2e6c20e3a8|9|1 7,0,0,0,0,0,0,0,0,0,0,0,0,0,0,7,
scooby_state_7ff3f1875036|0|0 7,0,0,0,0,0,0,0,0,0,0,0,0,0,0,7,
scooby_state_7ff3f186f268|59|1 1,0,0,0,0,0,0,0,2,0,1,0,0,0,3,7,
scooby_state_7ff3f1875036|35|1 7,0,0,0,0,0,0,0,0,0,0,0,0,0,0,7,
scooby_state_7f2e6c20e3a8|30|1 7,0,0,0,0,0,0,0,0,0,0,0,0,0,0,7,
scooby_state_7f2e6c20e3a8|24|1 7,0,0,0,0,0,0,0,0,0,0,0,0,0,0,7,
scooby_state_7f2e6c20e3a8|39|1 7,0,0,0,0,0,0,0,0,0,0,0,0,0,0,7,
scooby_state_7ff3f1875544|36|1 7,0,0,0,0,0,0,0,0,0,0,0,0,0,0,7,
scooby_state_7f2e6c20e3a8|4|1 7,0,0,0,0,0,0,0,0,0,0,0,0,0,0,7,
scooby_state_7f2e6c20e3a8|42|1 7,0,0,0,0,0,0,0,0,0,0,0,0,0,0,7,
scooby_state_7f2e6c20e3a8|55|1 7,0,0,0,0,0,0,0,0,0,0,0,0,0,0,7,
scooby_state_7f2e6c20e3a8|3|1 7,0,0,0,0,0,0,0,0,0,0,0,0,0,0,7,
scooby_state_7f2e6c20e3a8|33|1 7,0,0,0,0,0,0,0,0,0,0,0,0,0,0,7,
scooby_state_7ff3f1875036|1|1 7,0,0,0,0,0,0,0,0,0,0,0,0,0,0,7,
scooby_state_7f2e6c20e3a8|15|1 7,0,0,0,0,0,0,0,0,0,0,0,0,0,0,7,
scooby_state_7ff3f1875544|4|1 7,0,0,0,0,0,0,0,0,0,0,0,0,0,0,7,
scooby_state_7f2e6c20e3a8|7|1 7,0,0,0,0,0,0,0,0,0,0,0,0,0,0,7,
scooby_state_7ff3f1875544|28|1 7,0,0,0,0,0,0,0,0,0,0,0,0,0,0,7,
scooby_state_7ff3f1875544|10|1 7,0,0,0,0,0,0,0,0,0,0,0,0,0,0,7,
scooby_state_7f2e6c20e3a8|10|1 7,0,0,0,0,0,0,0,0,0,0,0,0,0,0,7,
scooby_state_7ff3f1875544|49|1 7,0,0,0,0,0,0,0,0,0,0,0,0,0,0,7,
scooby_state_7ff3f186f268|25|1 3,1,1,0,0,0,0,0,0,0,1,0,0,0,1,7,
scooby_state_7f2e6c20e3a8|48|1 7,0,0,0,0,0,0,0,0,0,0,0,0,0,0,7,
scooby_state_7ff3f1875544|59|1 7,0,0,0,0,0,0,0,0,0,0,0,0,0,0,7,
scooby_state_7ff3f186f78d|36|1 1,0,1,0,0,0,1,1,0,0,0,0,1,1,1,7,
scooby_state_7ff3f1875036|60|1 7,0,0,0,0,0,0,0,0,0,0,0,0,0,0,7,
scooby_state_7ff3f1875544|1|1 7,0,0,0,0,0,0,0,0,0,0,0,0,0,0,7,
scooby_state_7f2e6c20e3a8|51|1 7,0,0,0,0,0,0,0,0,0,0,0,0,0,0,7,
scooby_state_7f2e6c20e3a8|61|1 7,0,0,0,0,0,0,0,0,0,0,0,0,0,0,7,
scooby_state_7ff3f1875544|30|1 7,0,0,0,0,0,0,0,0,0,0,0,0,0,0,7,
scooby_state_7ff3f186f268|2|1 2,1,2,0,0,0,1,0,0,0,0,0,0,1,0,7,
scooby_state_7ff3f1875544|56|1 7,0,0,0,0,0,0,0,0,0,0,0,0,0,0,7,
scooby_state_7f2e6c20e3a8|58|1 7,0,0,0,0,0,0,0,0,0,0,0,0,0,0,7,
scooby_state_7ff3f1875036|11|1 7,0,0,0,0,0,0,0,0,0,0,0,0,0,0,7,
scooby_state_7ff3f1875036|9|1 7,0,0,0,0,0,0,0,0,0,0,0,0,0,0,7,
scooby_state_7ff3f1875036|10|1 7,0,0,0,0,0,0,0,0,0,0,0,0,0,0,7,
scooby_state_7f2e6c20e3a8|62|1 7,0,0,0,0,0,0,0,0,0,0,0,0,0,0,7,
scooby_state_7ff3f1875036|54|1 7,0,0,0,0,0,0,0,0,0,0,0,0,0,0,7,
scooby_state_7ff3f1875544|19|1 7,0,0,0,0,0,0,0,0,0,0,0,0,0,0,7,
scooby_state_7ff3f1875036|43|1 7,0,0,0,0,0,0,0,0,0,0,0,0,0,0,7,
scooby_state_7ff3f1875036|7|1 7,0,0,0,0,0,0,0,0,0,0,0,0,0,0,7,
scooby_state_7f2e6c209151|19|1 4,0,1,2,0,0,0,0,0,0,0,0,0,0,0,7,
scooby_state_7ff3f1875036|41|1 7,0,0,0,0,0,0,0,0,0,0,0,0,0,0,7,
scooby_state_7f2e6c20e3a8|18|1 7,0,0,0,0,0,0,0,0,0,0,0,0,0,0,7,
scooby_state_7ff3f1875036|56|1 7,0,0,0,0,0,0,0,0,0,0,0,0,0,0,7,
scooby_state_7ff3f1875036|40|1 7,0,0,0,0,0,0,0,0,0,0,0,0,0,0,7,
scooby_state_7ff3f1875036|37|1 7,0,0,0,0,0,0,0,0,0,0,0,0,0,0,7,
scooby_state_7ff3f1875544|53|1 7,0,0,0,0,0,0,0,0,0,0,0,0,0,0,7,
scooby_state_7ff3f1875036|6|1 7,0,0,0,0,0,0,0,0,0,0,0,0,0,0,7,
scooby_state_7ff3f1875036|5|1 7,0,0,0,0,0,0,0,0,0,0,0,0,0,0,7,
scooby_state_7ff3f1875036|34|1 7,0,0,0,0,0,0,0,0,0,0,0,0,0,0,7,
scooby_state_7ff3f1875544|44|1 7,0,0,0,0,0,0,0,0,0,0,0,0,0,0,7,
scooby_state_7ff3f1875036|36|1 7,0,0,0,0,0,0,0,0,0,0,0,0,0,0,7,
scooby_state_7ff3f1875036|8|1 7,0,0,0,0,0,0,0,0,0,0,0,0,0,0,7,
scooby_state_7f2e6c209151|62|1 3,0,1,2,0,0,0,0,0,0,0,0,0,0,0,6,
scooby_state_7ff3f1875036|14|1 6,0,0,0,0,0,0,0,0,0,0,0,0,0,0,6,
scooby_state_7ff3f1875544|0|0 5,0,0,0,0,0,0,0,0,0,0,0,0,1,0,6,
scooby_state_7ff3f1875544|41|1 6,0,0,0,0,0,0,0,0,0,0,0,0,0,0,6,
scooby_state_7ff3f1875036|17|1 6,0,0,0,0,0,0,0,0,0,0,0,0,0,0,6,
scooby_state_7ff3f1875029|2|1 6,0,0,0,0,0,0,0,0,0,0,0,0,0,0,6,
scooby_state_7f2e6c209151|21|1 4,0,0,2,0,0,0,0,0,0,0,0,0,0,0,6,
scooby_state_7ff3f1875544|20|1 6,0,0,0,0,0,0,0,0,0,0,0,0,0,0,6,
scooby_state_7ff3f1875544|22|1 6,0,0,0,0,0,0,0,0,0,0,0,0,0,0,6,
scooby_state_7ff3f1875544|8|1 6,0,0,0,0,0,0,0,0,0,0,0,0,0,0,6,
scooby_state_7ff3f1869239|4|1 6,0,0,0,0,0,0,0,0,0,0,0,0,0,0,6,
scooby_state_7f2e6c20e3a8|49|1 6,0,0,0,0,0,0,0,0,0,0,0,0,0,0,6,
scooby_state_7ff3f1875036|13|1 6,0,0,0,0,0,0,0,0,0,0,0,0,0,0,6,
scooby_state_7ff3f1869239|5|1 6,0,0,0,0,0,0,0,0,0,0,0,0,0,0,6,
scooby_state_7ff3f1875036|16|1 6,0,0,0,0,0,0,0,0,0,0,0,0,0,0,6,
scooby_state_7ff3f1875036|15|1 6,0,0,0,0,0,0,0,0,0,0,0,0,0,0,6,
scooby_state_7ff3f1869239|6|1 6,0,0,0,0,0,0,0,0,0,0,0,0,0,0,6,
scooby_state_7ff3f1869239|7|1 6,0,0,0,0,0,0,0,0,0,0,0,0,0,0,6,
scooby_state_7ff3f1869239|8|1 6,0,0,0,0,0,0,0,0,0,0,0,0,0,0,6,
scooby_state_7ff3f1875544|50|1 6,0,0,0,0,0,0,0,0,0,0,0,0,0,0,6,
scooby_state_7ff3f1875544|32|1 6,0,0,0,0,0,0,0,0,0,0,0,0,0,0,6,
scooby_state_7f2e6c209151|5|1 2,0,0,4,0,0,0,0,0,0,0,0,0,0,0,6,
scooby_state_7ff3f1875544|9|1 6,0,0,0,0,0,0,0,0,0,0,0,0,0,0,6,
scooby_state_7ff3f1875544|17|1 6,0,0,0,0,0,0,0,0,0,0,0,0,0,0,6,
scooby_state_7ff3f1875544|15|1 5,0,0,1,0,0,0,0,0,0,0,0,0,0,0,6,
scooby_state_7ff3f1875544|5|1 6,0,0,0,0,0,0,0,0,0,0,0,0,0,0,6,
scooby_state_7ff3f1875544|57|1 6,0,0,0,0,0,0,0,0,0,0,0,0,0,0,6,
scooby_state_7ff3f1875036|32|1 6,0,0,0,0,0,0,0,0,0,0,0,0,0,0,6,
scooby_state_7ff3f1875036|18|1 6,0,0,0,0,0,0,0,0,0,0,0,0,0,0,6,
scooby_state_7ff3f1875036|33|1 6,0,0,0,0,0,0,0,0,0,0,0,0,0,0,6,
scooby_state_7ff3f1870128|1|0 6,0,0,0,0,0,0,0,0,0,0,0,0,0,0,6,
scooby_state_7ff3f1875544|2|1 6,0,0,0,0,0,0,0,0,0,0,0,0,0,0,6,
scooby_state_7ff3f1875424|22|0 6,0,0,0,0,0,0,0,0,0,0,0,0,0,0,6,
scooby_state_7ff3f1875036|20|1 6,0,0,0,0,0,0,0,0,0,0,0,0,0,0,6,
scooby_state_7ff3f1875036|21|1 6,0,0,0,0,0,0,0,0,0,0,0,0,0,0,6,
scooby_state_7f2e6c209151|30|1 1,0,1,4,0,0,0,0,0,0,0,0,0,0,0,6,
scooby_state_7ff3f1875029|1|1 6,0,0,0,0,0,0,0,0,0,0,0,0,0,0,6,
scooby_state_7f2e6c209151|13|1 2,0,1,3,0,0,0,0,0,0,0,0,0,0,0,6,
scooby_state_7ff3f1875544|11|1 6,0,0,0,0,0,0,0,0,0,0,0,0,0,0,6,
scooby_state_7ff3f1875424|58|0 6,0,0,0,0,0,0,0,0,0,0,0,0,0,0,6,
scooby_state_7ff3f1875334|9|1 6,0,0,0,0,0,0,0,0,0,0,0,0,0,0,6,
scooby_state_7ff3f1875544|48|1 6,0,0,0,0,0,0,0,0,0,0,0,0,0,0,6,
scooby_state_7ff3f1875544|14|1 6,0,0,0,0,0,0,0,0,0,0,0,0,0,0,6,
scooby_state_7f2e6c20e3a8|52|1 6,0,0,0,0,0,0,0,0,0,0,0,0,0,0,6,
scooby_state_7ff3f1875544|3|1 6,0,0,0,0,0,0,0,0,0,0,0,0,0,0,6,
scooby_state_7ff3f1875544|54|1 6,0,0,0,0,0,0,0,0,0,0,0,0,0,0,6,
scooby_state_7ff3f1875544|29|1 6,0,0,0,0,0,0,0,0,0,0,0,0,0,0,6,
scooby_state_7f2e6c209151|23|1 4,0,0,2,0,0,0,0,0,0,0,0,0,0,0,6,
scooby_state_7f2e6c209151|52|1 2,0,0,4,0,0,0,0,0,0,0,0,0,0,0,6,
scooby_state_7ff3f1875544|47|1 6,0,0,0,0,0,0,0,0,0,0,0,0,0,0,6,
scooby_state_7ff3f1875544|23|1 6,0,0,0,0,0,0,0,0,0,0,0,0,0,0,6,
scooby_state_7ff3f1875544|63|1 6,0,0,0,0,0,0,0,0,0,0,0,0,0,0,6,
scooby_state_7ff3f186f268|22|1 2,0,0,0,1,0,0,1,0,0,1,0,0,1,0,6,
scooby_state_7ff3f1875036|25|1 6,0,0,0,0,0,0,0,0,0,0,0,0,0,0,6,
scooby_state_7ff3f1875544|26|1 6,0,0,0,0,0,0,0,0,0,0,0,0,0,0,6,
scooby_state_7ff3f1875544|35|1 6,0,0,0,0,0,0,0,0,0,0,0,0,0,0,6,
scooby_state_7ff3f1875036|31|1 6,0,0,0,0,0,0,0,0,0,0,0,0,0,0,6,
scooby_state_7f2e6c209151|34|1 3,0,0,3,0,0,0,0,0,0,0,0,0,0,0,6,
scooby_state_7f2e6c209151|47|1 2,0,0,4,0,0,0,0,0,0,0,0,0,0,0,6,
scooby_state_7ff3f1870128|2|0 6,0,0,0,0,0,0,0,0,0,0,0,0,0,0,6,
scooby_state_7ff3f1875424|2|0 6,0,0,0,0,0,0,0,0,0,0,0,0,0,0,6,
scooby_state_7ff3f1875544|45|1 6,0,0,0,0,0,0,0,0,0,0,0,0,0,0,6,
scooby_state_7ff3f186f268|15|1 2,0,0,0,0,0,1,0,0,0,0,0,0,1,2,6,
scooby_state_7ff3f1870151|55|1 6,0,0,0,0,0,0,0,0,0,0,0,0,0,0,6,
scooby_state_7ff3f1875544|6|1 6,0,0,0,0,0,0,0,0,0,0,0,0,0,0,6,
scooby_state_7ff3f1875036|30|1 6,0,0,0,0,0,0,0,0,0,0,0,0,0,0,6,
scooby_state_7ff3f1875036|27|1 6,0,0,0,0,0,0,0,0,0,0,0,0,0,0,6,
scooby_state_7ff3f1875036|29|1 6,0,0,0,0,0,0,0,0,0,0,0,0,0,0,6,
scooby_state_7ff3f1875544|51|1 6,0,0,0,0,0,0,0,0,0,0,0,0,0,0,6,
scooby_state_7ff3f1875424|48|0 6,0,0,0,0,0,0,0,0,0,0,0,0,0,0,6,
scooby_state_7ff3f1875424|14|0 6,0,0,0,0,0,0,0,0,0,0,0,0,0,0,6,
scooby_state_7ff3f1875036|12|1 6,0,0,0,0,0,0,0,0,0,0,0,0,0,0,6,
scooby_state_7f2e6c209151|53|1 3,0,0,3,0,0,0,0,0,0,0,0,0,0,0,6,
scooby_state_7ff3f1875036|23|1 6,0,0,0,0,0,0,0,0,0,0,0,0,0,0,6,
scooby_state_7ff3f186f268|5|1 2,0,0,0,0,0,0,0,1,1,0,1,0,0,1,6,
scooby_state_7ff3f1875544|38|1 6,0,0,0,0,0,0,0,0,0,0,0,0,0,0,6,
scooby_state_7ff3f1875036|22|1 6,0,0,0,0,0,0,0,0,0,0,0,0,0,0,6,
scooby_state_7ff3f1875036|28|1 6,0,0,0,0,0,0,0,0,0,0,0,0,0,0,6,
scooby_state_7ff3f1875036|19|1 6,0,0,0,0,0,0,0,0,0,0,0,0,0,0,6,
scooby_state_7ff3f1875424|59|0 6,0,0,0,0,0,0,0,0,0,0,0,0,0,0,6,
scooby_state_7ff3f1870128|7|0 6,0,0,0,0,0,0,0,0,0,0,0,0,0,0,6,
scooby_state_7ff3f1875544|60|1 6,0,0,0,0,0,0,0,0,0,0,0,0,0,0,6,
scooby_state_7ff3f1875036|24|1 6,0,0,0,0,0,0,0,0,0,0,0,0,0,0,6,
scooby_state_7ff3f1870128|60|0 6,0,0,0,0,0,0,0,0,0,0,0,0,0,0,6,
scooby_state_7ff3f1875036|26|1 6,0,0,0,0,0,0,0,0,0,0,0,0,0,0,6,
scooby_state_7ff3f1875318|36|1 5,0,0,0,0,0,0,0,0,0,0,0,0,0,0,5,
scooby_state_7ff3f1870128|22|1 5,0,0,0,0,0,0,0,0,0,0,0,0,0,0,5,
scooby_state_7ff3f1875334|58|1 5,0,0,0,0,0,0,0,0,0,0,0,0,0,0,5,
scooby_state_7f2e6c209151|40|1 2,0,0,3,0,0,0,0,0,0,0,0,0,0,0,5,
scooby_state_7ff3f187531c|61|1 5,0,0,0,0,0,0,0,0,0,0,0,0,0,0,5,
scooby_state_7f2e6c20e31c|59|1 5,0,0,0,0,0,0,0,0,0,0,0,0,0,0,5,
scooby_state_7ff3f1875318|57|1 5,0,0,0,0,0,0,0,0,0,0,0,0,0,0,5,
scooby_state_7ff3f187531c|53|1 5,0,0,0,0,0,0,0,0,0,0,0,0,0,0,5,
scooby_state_7ff3f1875424|15|0 5,0,0,0,0,0,0,0,0,0,0,0,0,0,0,5,
scooby_state_7f2e6c20e31c|1|1 5,0,0,0,0,0,0,0,0,0,0,0,0,0,0,5,
scooby_state_7ff3f1870128|34|0 5,0,0,0,0,0,0,0,0,0,0,0,0,0,0,5,
scooby_state_7f2e6c20e544|33|1 5,0,0,0,0,0,0,0,0,0,0,0,0,0,0,5,
scooby_state_7ff3f1870128|60|1 5,0,0,0,0,0,0,0,0,0,0,0,0,0,0,5,
scooby_state_7ff3f186f268|56|1 1,0,0,1,1,0,1,0,0,0,0,0,0,0,1,5,
scooby_state_7f2e6c20e31c|7|1 5,0,0,0,0,0,0,0,0,0,0,0,0,0,0,5,
scooby_state_7ff3f1875318|8|1 5,0,0,0,0,0,0,0,0,0,0,0,0,0,0,5,
scooby_state_7ff3f1875318|5|1 5,0,0,0,0,0,0,0,0,0,0,0,0,0,0,5,
scooby_state_7f2e6c20e544|30|1 5,0,0,0,0,0,0,0,0,0,0,0,0,0,0,5,
scooby_state_7ff3f1870128|55|1 5,0,0,0,0,0,0,0,0,0,0,0,0,0,0,5,
scooby_state_7f2e6c20e544|27|1 5,0,0,0,0,0,0,0,0,0,0,0,0,0,0,5,
scooby_state_7ff3f1875318|42|1 5,0,0,0,0,0,0,0,0,0,0,0,0,0,0,5,
scooby_state_7ff3f186f4e1|12|0 5,0,0,0,0,0,0,0,0,0,0,0,0,0,0,5,
scooby_state_7ff3f186f268|20|1 1,0,0,0,0,1,0,0,0,0,0,1,0,2,0,5,
scooby_state_7ff3f186f4a1|57|0 5,0,0,0,0,0,0,0,0,0,0,0,0,0,0,5,
scooby_state_7ff3f187531c|10|1 5,0,0,0,0,0,0,0,0,0,0,0,0,0,0,5,
scooby_state_7f2e6c209151|29|1 3,0,0,2,0,0,0,0,0,0,0,0,0,0,0,5,
scooby_state_7f2e6c20e31c|56|1 5,0,0,0,0,0,0,0,0,0,0,0,0,0,0,5,
scooby_state_7ff3f187531c|1|1 5,0,0,0,0,0,0,0,0,0,0,0,0,0,0,5,
scooby_state_7ff3f1875318|63|1 5,0,0,0,0,0,0,0,0,0,0,0,0,0,0,5,
scooby_state_7f2e6c20e544|42|1 5,0,0,0,0,0,0,0,0,0,0,0,0,0,0,5,
scooby_state_7f2e6c20e334|55|1 5,0,0,0,0,0,0,0,0,0,0,0,0,0,0,5,
scooby_state_7ff3f187531c|62|1 5,0,0,0,0,0,0,0,0,0,0,0,0,0,0,5,
scooby_state_7f2e6c20e544|21|1 5,0,0,0,0,0,0,0,0,0,0,0,0,0,0,5,
scooby_state_7ff3f1875334|0|0 5,0,0,0,0,0,0,0,0,0,0,0,0,0,0,5,
scooby_state_7ff3f1875424|12|0 5,0,0,0,0,0,0,0,0,0,0,0,0,0,0,5,
scooby_state_7ff3f1875334|61|1 5,0,0,0,0,0,0,0,0,0,0,0,0,0,0,5,
scooby_state_7ff3f1870128|10|0 5,0,0,0,0,0,0,0,0,0,0,0,0,0,0,5,
scooby_state_7ff3f1875334|55|1 5,0,0,0,0,0,0,0,0,0,0,0,0,0,0,5,
scooby_state_7f2e6c209151|27|1 1,0,0,4,0,0,0,0,0,0,0,0,0,0,0,5,
scooby_state_7f2e6c20e31c|50|1 5,0,0,0,0,0,0,0,0,0,0,0,0,0,0,5,
scooby_state_7f2e6c20e334|52|1 5,0,0,0,0,0,0,0,0,0,0,0,0,0,0,5,
scooby_state_7f2e6c20e334|3|1 5,0,0,0,0,0,0,0,0,0,0,0,0,0,0,5,
scooby_state_7ff3f1870128|63|1 5,0,0,0,0,0,0,0,0,0,0,0,0,0,0,5,
scooby_state_7f2e6c20e31c|53|1 5,0,0,0,0,0,0,0,0,0,0,0,0,0,0,5,
scooby_state_7ff3f186f78d|45|1 0,1,0,0,0,0,0,0,1,0,0,0,0,1,2,5,
scooby_state_7f2e6c20e318|54|1 5,0,0,0,0,0,0,0,0,0,0,0,0,0,0,5,
scooby_state_7f2e6c20e31c|47|1 5,0,0,0,0,0,0,0,0,0,0,0,0,0,0,5,
scooby_state_7ff3f1875318|54|1 5,0,0,0,0,0,0,0,0,0,0,0,0,0,0,5,
scooby_state_7ff3f1876eeb|22|0 4,0,1,0,0,0,0,0,0,0,0,0,0,0,0,5,
scooby_state_7f2e6c209151|28|1 1,0,1,3,0,0,0,0,0,0,0,0,0,0,0,5,
scooby_state_7f2e6c20e318|57|1 5,0,0,0,0,0,0,0,0,0,0,0,0,0,0,5,
scooby_state_7ff3f186f268|40|1 4,0,0,0,0,0,0,0,1,0,0,0,0,0,0,5,
scooby_state_7f2e6c20e318|60|1 5,0,0,0,0,0,0,0,0,0,0,0,0,0,0,5,
scooby_state_7f2e6c20e334|58|1 5,0,0,0,0,0,0,0,0,0,0,0,0,0,0,5,
scooby_state_7f2e6c209151|17|1 3,0,1,1,0,0,0,0,0,0,0,0,0,0,0,5,
scooby_state_7f2e6c20e334|31|1 5,0,0,0,0,0,0,0,0,0,0,0,0,0,0,5,
scooby_state_7ff3f188b23a|57|0 0,1,0,0,0,0,0,0,0,1,0,1,0,0,2,5,
scooby_state_7f2e6c20e334|40|1 5,0,0,0,0,0,0,0,0,0,0,0,0,0,0,5,
scooby_state_7f2e6c20e318|39|1 5,0,0,0,0,0,0,0,0,0,0,0,0,0,0,5,
scooby_state_7f2e6c20e318|2|1 5,0,0,0,0,0,0,0,0,0,0,0,0,0,0,5,
scooby_state_7f2e6c20e318|42|1 5,0,0,0,0,0,0,0,0,0,0,0,0,0,0,5,
scooby_state_7ff3f1870128|59|1 5,0,0,0,0,0,0,0,0,0,0,0,0,0,0,5,
scooby_state_7f2e6c20e334|37|1 5,0,0,0,0,0,0,0,0,0,0,0,0,0,0,5,
scooby_state_7f2e6c20e318|5|1 5,0,0,0,0,0,0,0,0,0,0,0,0,0,0,5,
scooby_state_7f2e6c20e334|43|1 5,0,0,0,0,0,0,0,0,0,0,0,0,0,0,5,
scooby_state_7ff3f1875334|31|1 5,0,0,0,0,0,0,0,0,0,0,0,0,0,0,5,
scooby_state_7ff3f1870128|57|1 5,0,0,0,0,0,0,0,0,0,0,0,0,0,0,5,
scooby_state_7f2e6c20e318|45|1 5,0,0,0,0,0,0,0,0,0,0,0,0,0,0,5,
scooby_state_7ff3f1875424|52|0 5,0,0,0,0,0,0,0,0,0,0,0,0,0,0,5,
scooby_state_7f2e6c20e544|18|1 5,0,0,0,0,0,0,0,0,0,0,0,0,0,0,5,
scooby_state_7ff3f186f268|18|1 2,1,0,0,0,0,0,0,1,0,0,0,0,0,1,5,
scooby_state_7ff3f187531c|50|1 5,0,0,0,0,0,0,0,0,0,0,0,0,0,0,5,
scooby_state_7ff3f1875318|45|1 5,0,0,0,0,0,0,0,0,0,0,0,0,0,0,5,
scooby_state_7f2e6c20e31c|10|1 5,0,0,0,0,0,0,0,0,0,0,0,0,0,0,5,
scooby_state_7ff3f186f268|9|1 1,0,0,2,0,0,0,0,0,0,0,1,0,0,1,5,
scooby_state_7f2e6c20e31c|41|1 5,0,0,0,0,0,0,0,0,0,0,0,0,0,0,5,
scooby_state_7ff3f1875424|3|0 4,0,0,0,0,0,0,0,0,0,0,1,0,0,0,5,
scooby_state_7f2e6c209151|15|1 3,0,0,1,0,0,0,0,0,0,1,0,0,0,0,5,
scooby_state_7f2e6c20e31c|38|1 5,0,0,0,0,0,0,0,0,0,0,0,0,0,0,5,
scooby_state_7ff3f1875318|48|1 5,0,0,0,0,0,0,0,0,0,0,0,0,0,0,5,
scooby_state_7ff3f1870128|18|0 5,0,0,0,0,0,0,0,0,0,0,0,0,0,0,5,
scooby_state_7ff3f1875318|51|1 5,0,0,0,0,0,0,0,0,0,0,0,0,0,0,5,
scooby_state_7ff3f1875424|0|0 5,0,0,0,0,0,0,0,0,0,0,0,0,0,0,5,
scooby_state_7f2e6c20e318|51|1 5,0,0,0,0,0,0,0,0,0,0,0,0,0,0,5,
scooby_state_7ff3f1875334|52|1 5,0,0,0,0,0,0,0,0,0,0,0,0,0,0,5,
scooby_state_7ff3f1875318|39|1 5,0,0,0,0,0,0,0,0,0,0,0,0,0,0,5,
scooby_state_7ff3f1870128|61|0 5,0,0,0,0,0,0,0,0,0,0,0,0,0,0,5,
scooby_state_7ff3f1875334|3|1 5,0,0,0,0,0,0,0,0,0,0,0,0,0,0,5,
scooby_state_7ff3f1875334|43|1 5,0,0,0,0,0,0,0,0,0,0,0,0,0,0,5,
scooby_state_7f2e6c20e544|24|1 5,0,0,0,0,0,0,0,0,0,0,0,0,0,0,5,
scooby_state_7f2e6c20e334|61|1 5,0,0,0,0,0,0,0,0,0,0,0,0,0,0,5,
scooby_state_7f2e6c20e318|63|1 5,0,0,0,0,0,0,0,0,0,0,0,0,0,0,5,
scooby_state_7f2e6c20e334|0|0 5,0,0,0,0,0,0,0,0,0,0,0,0,0,0,5,
scooby_state_7ff3f1875334|37|1 5,0,0,0,0,0,0,0,0,0,0,0,0,0,0,5,
scooby_state_7ff3f187531c|38|1 5,0,0,0,0,0,0,0,0,0,0,0,0,0,0,5,
scooby_state_7f2e6c20e318|8|1 5,0,0,0,0,0,0,0,0,0,0,0,0,0,0,5,
scooby_state_7ff3f187531c|41|1 5,0,0,0,0,0,0,0,0,0,0,0,0,0,0,5,
scooby_state_7f2e6c20e31c|61|1 5,0,0,0,0,0,0,0,0,0,0,0,0,0,0,5,
scooby_state_7ff3f1870128|3|0 5,0,0,0,0,0,0,0,0,0,0,0,0,0,0,5,
scooby_state_7ff3f1875334|46|1 5,0,0,0,0,0,0,0,0,0,0,0,0,0,0,5,
scooby_state_7ff3f187531c|47|1 5,0,0,0,0,0,0,0,0,0,0,0,0,0,0,5,
scooby_state_7ff3f187531c|4|1 5,0,0,0,0,0,0,0,0,0,0,0,0,0,0,5,
scooby_state_7ff3f1875334|6|1 5,0,0,0,0,0,0,0,0,0,0,0,0,0,0,5,
scooby_state_7ff3f186f268|48|1 2,0,0,0,1,0,0,1,0,0,0,0,0,0,1,5,
scooby_state_7f2e6c20e334|9|1 5,0,0,0,0,0,0,0,0,0,0,0,0,0,0,5,
scooby_state_7ff3f1870128|56|0 5,0,0,0,0,0,0,0,0,0,0,0,0,0,0,5,
scooby_state_7f2e6c20e31c|4|1 5,0,0,0,0,0,0,0,0,0,0,0,0,0,0,5,
scooby_state_7f2e6c209151|18|1 3,0,0,2,0,0,0,0,0,0,0,0,0,0,0,5,
scooby_state_7f2e6c209151|25|1 3,0,0,2,0,0,0,0,0,0,0,0,0,0,0,5,
scooby_state_7f2e6c20e31c|62|1 5,0,0,0,0,0,0,0,0,0,0,0,0,0,0,5,
scooby_state_7f2e6c20e544|39|1 5,0,0,0,0,0,0,0,0,0,0,0,0,0,0,5,
scooby_state_7ff3f187531c|7|1 5,0,0,0,0,0,0,0,0,0,0,0,0,0,0,5,
scooby_state_7f2e6c20e334|46|1 5,0,0,0,0,0,0,0,0,0,0,0,0,0,0,5,
scooby_state_7ff3f1875318|2|1 5,0,0,0,0,0,0,0,0,0,0,0,0,0,0,5,
scooby_state_7ff3f187531c|44|1 5,0,0,0,0,0,0,0,0,0,0,0,0,0,0,5,
scooby_state_7ff3f187531c|56|1 5,0,0,0,0,0,0,0,0,0,0,0,0,0,0,5,
scooby_state_7f2e6c20e334|49|1 5,0,0,0,0,0,0,0,0,0,0,0,0,0,0,5,
scooby_state_7ff3f1875334|49|1 5,0,0,0,0,0,0,0,0,0,0,0,0,0,0,5,
scooby_state_7ff3f1875318|60|1 5,0,0,0,0,0,0,0,0,0,0,0,0,0,0,5,
scooby_state_7f2e6c20e318|48|1 5,0,0,0,0,0,0,0,0,0,0,0,0,0,0,5,
scooby_state_7ff3f1870128|5|0 5,0,0,0,0,0,0,0,0,0,0,0,0,0,0,5,
scooby_state_7f2e6c20e31c|44|1 5,0,0,0,0,0,0,0,0,0,0,0,0,0,0,5,
scooby_state_7f2e6c20e544|36|1 5,0,0,0,0,0,0,0,0,0,0,0,0,0,0,5,
scooby_state_7f2e6c20e318|36|1 5,0,0,0,0,0,0,0,0,0,0,0,0,0,0,5,
scooby_state_7ff3f1870128|4|0 5,0,0,0,0,0,0,0,0,0,0,0,0,0,0,5,
scooby_state_7f2e6c209151|3|1 0,0,0,5,0,0,0,0,0,0,0,0,0,0,0,5,
scooby_state_7ff3f187531c|59|1 5,0,0,0,0,0,0,0,0,0,0,0,0,0,0,5,
scooby_state_7ff3f1875334|40|1 5,0,0,0,0,0,0,0,0,0,0,0,0,0,0,5,
scooby_state_7ff3f188b23a|15|0 1,1,0,1,0,0,0,1,0,0,0,0,0,0,1,5,
scooby_state_7f2e6c209151|20|1 3,0,0,2,0,0,0,0,0,0,0,0,0,0,0,5,
scooby_state_7f2e6c20e334|6|1 5,0,0,0,0,0,0,0,0,0,0,0,0,0,0,5,
scooby_state_7f2e6c20e334|35|1 4,0,0,0,0,0,0,0,0,0,0,0,0,0,0,4,
scooby_state_7ff3f186f268|11|1 3,0,0,1,0,0,0,0,0,0,0,0,0,0,0,4,
scooby_state_7f2e6c20e31c|21|1 4,0,0,0,0,0,0,0,0,0,0,0,0,0,0,4,
scooby_state_7ff3f187531c|45|1 4,0,0,0,0,0,0,0,0,0,0,0,0,0,0,4,
scooby_state_7f2e6c20e318|22|1 4,0,0,0,0,0,0,0,0,0,0,0,0,0,0,4,
scooby_state_7f2e6c20e318|32|1 4,0,0,0,0,0,0,0,0,0,0,0,0,0,0,4,
scooby_state_7ff3f186f268|46|1 1,0,1,1,0,0,0,0,0,0,1,0,0,0,0,4,
scooby_state_7ff3f1875334|8|1 4,0,0,0,0,0,0,0,0,0,0,0,0,0,0,4,
scooby_state_7ff3f187531c|34|1 4,0,0,0,0,0,0,0,0,0,0,0,0,0,0,4,
scooby_state_7f2e6c20e334|8|1 4,0,0,0,0,0,0,0,0,0,0,0,0,0,0,4,
scooby_state_7ff3f186f78d|21|1 1,0,0,0,0,0,0,0,0,1,0,0,0,1,1,4,
scooby_state_7f2e6c20e544|12|1 4,0,0,0,0,0,0,0,0,0,0,0,0,0,0,4,
scooby_state_7f2e6c20e334|14|1 4,0,0,0,0,0,0,0,0,0,0,0,0,0,0,4,
scooby_state_7ff3f1875334|14|1 4,0,0,0,0,0,0,0,0,0,0,0,0,0,0,4,
scooby_state_7ff3f187531c|49|1 4,0,0,0,0,0,0,0,0,0,0,0,0,0,0,4,
scooby_state_7f2e6c209151|4|1 1,0,0,3,0,0,0,0,0,0,0,0,0,0,0,4,
scooby_state_7f2e6c20e334|36|1 4,0,0,0,0,0,0,0,0,0,0,0,0,0,0,4,
scooby_state_7ff3f1875318|10|1 4,0,0,0,0,0,0,0,0,0,0,0,0,0,0,4,
scooby_state_7ff3f187531c|28|1 4,0,0,0,0,0,0,0,0,0,0,0,0,0,0,4,
scooby_state_7ff3f186f78d|5|0 4,0,0,0,0,0,0,0,0,0,0,0,0,0,0,4,
scooby_state_7ff3f187531c|39|1 4,0,0,0,0,0,0,0,0,0,0,0,0,0,0,4,
scooby_state_7f2e6c20e334|20|1 4,0,0,0,0,0,0,0,0,0,0,0,0,0,0,4,
scooby_state_7ff3f1875318|43|1 4,0,0,0,0,0,0,0,0,0,0,0,0,0,0,4,
scooby_state_7ff3f1875318|33|1 4,0,0,0,0,0,0,0,0,0,0,0,0,0,0,4,
scooby_state_7f2e6c20e318|19|1 4,0,0,0,0,0,0,0,0,0,0,0,0,0,0,4,
scooby_state_7ff3f1875318|23|1 4,0,0,0,0,0,0,0,0,0,0,0,0,0,0,4,
scooby_state_7ff3f186f268|23|1 1,0,0,0,0,0,0,0,1,1,0,0,0,0,1,4,
scooby_state_7ff3f1875318|30|1 4,0,0,0,0,0,0,0,0,0,0,0,0,0,0,4,
scooby_state_7ff3f187531c|51|1 4,0,0,0,0,0,0,0,0,0,0,0,0,0,0,4,
scooby_state_7ff3f1875334|28|1 4,0,0,0,0,0,0,0,0,0,0,0,0,0,0,4,
scooby_state_7ff3f1870128|15|0 4,0,0,0,0,0,0,0,0,0,0,0,0,0,0,4,
scooby_state_7ff3f1870128|61|1 4,0,0,0,0,0,0,0,0,0,0,0,0,0,0,4,
scooby_state_7ff3f187531c|30|1 4,0,0,0,0,0,0,0,0,0,0,0,0,0,0,4,
scooby_state_7ff3f187531c|52|1 4,0,0,0,0,0,0,0,0,0,0,0,0,0,0,4,
scooby_state_7ff3f1875318|53|1 4,0,0,0,0,0,0,0,0,0,0,0,0,0,0,4,
scooby_state_7f2e6c20e544|53|1 4,0,0,0,0,0,0,0,0,0,0,0,0,0,0,4,
scooby_state_7ff3f186f268|62|1 0,0,1,0,0,0,0,0,0,1,0,0,0,1,1,4,
scooby_state_7ff3f187531c|9|1 4,0,0,0,0,0,0,0,0,0,0,0,0,0,0,4,
scooby_state_7ff3f186f491|27|-10 4,0,0,0,0,0,0,0,0,0,0,0,0,0,0,4,
scooby_state_7ff3f187531c|35|1 4,0,0,0,0,0,0,0,0,0,0,0,0,0,0,4,
scooby_state_7ff3f1875424|31|0 4,0,0,0,0,0,0,0,0,0,0,0,0,0,0,4,
scooby_state_7f2e6c20e318|16|1 4,0,0,0,0,0,0,0,0,0,0,0,0,0,0,4,
scooby_state_7ff3f1875318|4|1 4,0,0,0,0,0,0,0,0,0,0,0,0,0,0,4,
scooby_state_7ff3f1875318|24|1 4,0,0,0,0,0,0,0,0,0,0,0,0,0,0,4,
scooby_state_7f2e6c20e31c|15|1 4,0,0,0,0,0,0,0,0,0,0,0,0,0,0,4,
scooby_state_7ff3f1875318|21|1 4,0,0,0,0,0,0,0,0,0,0,0,0,0,0,4,
scooby_state_7ff3f186f2e6|15|0 4,0,0,0,0,0,0,0,0,0,0,0,0,0,0,4,
scooby_state_7f2e6c20e544|22|1 4,0,0,0,0,0,0,0,0,0,0,0,0,0,0,4,
scooby_state_7ff3f1875318|7|1 4,0,0,0,0,0,0,0,0,0,0,0,0,0,0,4,
scooby_state_7ff3f1870128|31|1 4,0,0,0,0,0,0,0,0,0,0,0,0,0,0,4,
scooby_state_7ff3f1875029|0|0 4,0,0,0,0,0,0,0,0,0,0,0,0,0,0,4,
scooby_state_7f2e6c20e31c|31|1 4,0,0,0,0,0,0,0,0,0,0,0,0,0,0,4,
scooby_state_7ff3f186f268|31|1 3,0,0,0,0,0,0,0,0,0,0,0,1,0,0,4,
scooby_state_7f2e6c209151|51|1 2,0,1,1,0,0,0,0,0,0,0,0,0,0,0,4,
scooby_state_7f2e6c20e31c|30|1 4,0,0,0,0,0,0,0,0,0,0,0,0,0,0,4,
scooby_state_7ff3f1870128|62|0 4,0,0,0,0,0,0,0,0,0,0,0,0,0,0,4,
scooby_state_7ff3f187531c|14|1 4,0,0,0,0,0,0,0,0,0,0,0,0,0,0,4,
scooby_state_7ff3f1875318|14|1 4,0,0,0,0,0,0,0,0,0,0,0,0,0,0,4,
scooby_state_7ff3f186f268|38|1 1,0,1,1,0,0,0,0,1,0,0,0,0,0,0,4,
scooby_state_7f2e6c20e334|29|1 4,0,0,0,0,0,0,0,0,0,0,0,0,0,0,4,
scooby_state_7f2e6c20e31c|27|1 4,0,0,0,0,0,0,0,0,0,0,0,0,0,0,4,
scooby_state_7ff3f186f78d|5|1 0,0,0,0,1,0,0,0,0,0,1,1,1,0,0,4,
scooby_state_7f2e6c20e334|30|1 4,0,0,0,0,0,0,0,0,0,0,0,0,0,0,4,
scooby_state_7ff3f187531c|23|1 4,0,0,0,0,0,0,0,0,0,0,0,0,0,0,4,
scooby_state_7f2e6c20e544|56|1 4,0,0,0,0,0,0,0,0,0,0,0,0,0,0,4,
scooby_state_7ff3f186f268|16|1 0,1,1,0,0,0,1,0,0,0,0,0,1,0,0,4,
scooby_state_7f2e6c20e334|11|1 4,0,0,0,0,0,0,0,0,0,0,0,0,0,0,4,
scooby_state_7f2e6c20e334|24|1 4,0,0,0,0,0,0,0,0,0,0,0,0,0,0,4,
scooby_state_7ff3f1875334|44|1 4,0,0,0,0,0,0,0,0,0,0,0,0,0,0,4,
scooby_state_7f2e6c20e318|15|1 4,0,0,0,0,0,0,0,0,0,0,0,0,0,0,4,
scooby_state_7ff3f1875318|46|1 4,0,0,0,0,0,0,0,0,0,0,0,0,0,0,4,
scooby_state_7ff3f187531c|43|1 4,0,0,0,0,0,0,0,0,0,0,0,0,0,0,4,
scooby_state_7ff3f1875318|19|1 4,0,0,0,0,0,0,0,0,0,0,0,0,0,0,4,
scooby_state_7ff3f1875334|48|1 4,0,0,0,0,0,0,0,0,0,0,0,0,0,0,4,
scooby_state_7f2e6c20de6f|0|0 4,0,0,0,0,0,0,0,0,0,0,0,0,0,0,4,
scooby_state_7ff3f187531c|17|1 4,0,0,0,0,0,0,0,0,0,0,0,0,0,0,4,
scooby_state_7ff3f187531c|46|1 4,0,0,0,0,0,0,0,0,0,0,0,0,0,0,4,
scooby_state_7f2e6c20e31c|42|1 4,0,0,0,0,0,0,0,0,0,0,0,0,0,0,4,
scooby_state_7ff3f1875334|50|1 4,0,0,0,0,0,0,0,0,0,0,0,0,0,0,4,
scooby_state_7f2e6c20e318|13|1 4,0,0,0,0,0,0,0,0,0,0,0,0,0,0,4,
scooby_state_7f2e6c20e318|11|1 4,0,0,0,0,0,0,0,0,0,0,0,0,0,0,4,
scooby_state_7f2e6c20e334|57|1 4,0,0,0,0,0,0,0,0,0,0,0,0,0,0,4,
scooby_state_7f2e6c20e544|0|0 4,0,0,0,0,0,0,0,0,0,0,0,0,0,0,4,
scooby_state_7ff3f1875318|37|1 4,0,0,0,0,0,0,0,0,0,0,0,0,0,0,4,
scooby_state_7f2e6c20e334|16|1 4,0,0,0,0,0,0,0,0,0,0,0,0,0,0,4,
scooby_state_7ff3f186f4ba|58|-1 4,0,0,0,0,0,0,0,0,0,0,0,0,0,0,4,
scooby_state_7ff3f1875334|45|1 4,0,0,0,0,0,0,0,0,0,0,0,0,0,0,4,
scooby_state_7ff3f1870128|9|0 4,0,0,0,0,0,0,0,0,0,0,0,0,0,0,4,
scooby_state_7f2e6c20e544|9|1 4,0,0,0,0,0,0,0,0,0,0,0,0,0,0,4,
scooby_state_7f2e6c20e31c|26|1 4,0,0,0,0,0,0,0,0,0,0,0,0,0,0,4,
scooby_state_7ff3f1875334|51|1 4,0,0,0,0,0,0,0,0,0,0,0,0,0,0,4,
scooby_state_7f2e6c20e334|5|1 4,0,0,0,0,0,0,0,0,0,0,0,0,0,0,4,
scooby_state_7f2e6c208268|25|1 1,0,1,0,2,0,0,0,0,0,0,0,0,0,0,4,
scooby_state_7f2e6c20e334|41|1 4,0,0,0,0,0,0,0,0,0,0,0,0,0,0,4,
scooby_state_7ff3f1875334|42|1 4,0,0,0,0,0,0,0,0,0,0,0,0,0,0,4,
scooby_state_7ff3f187531c|12|1 4,0,0,0,0,0,0,0,0,0,0,0,0,0,0,4,
scooby_state_7f2e6c20e31c|22|1 4,0,0,0,0,0,0,0,0,0,0,0,0,0,0,4,
scooby_state_7f2e6c20e318|21|1 4,0,0,0,0,0,0,0,0,0,0,0,0,0,0,4,
scooby_state_7ff3f1870128|11|0 4,0,0,0,0,0,0,0,0,0,0,0,0,0,0,4,
scooby_state_7ff3f1875334|10|1 4,0,0,0,0,0,0,0,0,0,0,0,0,0,0,4,
scooby_state_7f2e6c20e334|22|1 4,0,0,0,0,0,0,0,0,0,0,0,0,0,0,4,
scooby_state_7f2e6c20e334|21|1 4,0,0,0,0,0,0,0,0,0,0,0,0,0,0,4,
scooby_state_7ff3f186f268|47|1 0,0,0,1,0,0,0,1,0,0,0,1,0,0,1,4,
scooby_state_7ff3f1870128|59|0 4,0,0,0,0,0,0,0,0,0,0,0,0,0,0,4,
scooby_state_7ff3f1875318|47|1 4,0,0,0,0,0,0,0,0,0,0,0,0,0,0,4,
scooby_state_7ff3f1875318|44|1 4,0,0,0,0,0,0,0,0,0,0,0,0,0,0,4,
scooby_state_7ff3f1875334|26|1 4,0,0,0,0,0,0,0,0,0,0,0,0,0,0,4,
scooby_state_7f2e6c20e334|19|1 4,0,0,0,0,0,0,0,0,0,0,0,0,0,0,4,
scooby_state_7f2e6c20e31c|17|1 4,0,0,0,0,0,0,0,0,0,0,0,0,0,0,4,
scooby_state_7f2e6c20e318|20|1 4,0,0,0,0,0,0,0,0,0,0,0,0,0,0,4,
scooby_state_7ff3f1875318|28|1 4,0,0,0,0,0,0,0,0,0,0,0,0,0,0,4,
scooby_state_7f2e6c20e31c|11|1 4,0,0,0,0,0,0,0,0,0,0,0,0,0,0,4,
scooby_state_7ff3f1875424|10|0 4,0,0,0,0,0,0,0,0,0,0,0,0,0,0,4,
scooby_state_7ff3f186f4e1|15|0 4,0,0,0,0,0,0,0,0,0,0,0,0,0,0,4,
scooby_state_7f2e6c20e334|10|1 4,0,0,0,0,0,0,0,0,0,0,0,0,0,0,4,
scooby_state_7ff3f186f268|12|1 0,0,0,0,0,0,0,1,0,0,0,1,0,0,2,4,
scooby_state_7ff3f1875424|9|0 4,0,0,0,0,0,0,0,0,0,0,0,0,0,0,4,
[...]
scooby_state_7f2e576a8440|17|1 1,0,0,0,0,0,0,0,0,0,0,0,0,0,0,1,
scooby_state_7ff3f186f78d|19|-44 1,0,0,0,0,0,0,0,0,0,0,0,0,0,0,1,
scooby_state_7ff3f1886a03|40|1 1,0,0,0,0,0,0,0,0,0,0,0,0,0,0,1,
scooby_state_7ff3f186d002|0|-2 1,0,0,0,0,0,0,0,0,0,0,0,0,0,0,1,
scooby_state_7ff3dd154760|29|0 0,0,0,0,0,0,0,0,0,0,0,0,0,1,0,1,
scooby_state_7f2e6c21f885|52|1 1,0,0,0,0,0,0,0,0,0,0,0,0,0,0,1,
scooby_state_7f2e6c209128|35|4 1,0,0,0,0,0,0,0,0,0,0,0,0,0,0,1,
scooby_state_7ff3f186f731|2|-43 0,0,1,0,0,0,0,0,0,0,0,0,0,0,0,1,
scooby_state_7f2e6c200d45|53|1 1,0,0,0,0,0,0,0,0,0,0,0,0,0,0,1,
scooby_state_7f2e6c20878d|13|5 1,0,0,0,0,0,0,0,0,0,0,0,0,0,0,1,
scooby_state_7f2e6c20878d|54|21 1,0,0,0,0,0,0,0,0,0,0,0,0,0,0,1,
scooby_state_7ff3dd0cf337|5|0 1,0,0,0,0,0,0,0,0,0,0,0,0,0,0,1,
scooby_state_7ff3f1870128|55|8 1,0,0,0,0,0,0,0,0,0,0,0,0,0,0,1,
scooby_state_7ff3f18753d5|21|-1 1,0,0,0,0,0,0,0,0,0,0,0,0,0,0,1,
scooby_state_7f2e6c208731|39|26 1,0,0,0,0,0,0,0,0,0,0,0,0,0,0,1,
scooby_state_7f2e6c2084e1|39|25 1,0,0,0,0,0,0,0,0,0,0,0,0,0,0,1,
scooby_state_7ff3f18753d5|28|25 1,0,0,0,0,0,0,0,0,0,0,0,0,0,0,1,
scooby_state_7ff3f187a834|45|-9 1,0,0,0,0,0,0,0,0,0,0,0,0,0,0,1,
scooby_state_7f2e6c2084e1|7|0 1,0,0,0,0,0,0,0,0,0,0,0,0,0,0,1,
scooby_state_7f2e6c209128|6|-24 1,0,0,0,0,0,0,0,0,0,0,0,0,0,0,1,
scooby_state_7f2e6c208731|51|40 0,1,0,0,0,0,0,0,0,0,0,0,0,0,0,1,
scooby_state_7ff3f186d5ad|62|1 1,0,0,0,0,0,0,0,0,0,0,0,0,0,0,1,
scooby_state_7ff3dd0aaf03|60|1 1,0,0,0,0,0,0,0,0,0,0,0,0,0,0,1,
scooby_state_7f2e6c20e49f|37|-8 1,0,0,0,0,0,0,0,0,0,0,0,0,0,0,1,
scooby_state_7f2e6c212e66|5|3 1,0,0,0,0,0,0,0,0,0,0,0,0,0,0,1,
scooby_state_7ff3dcda0a22|40|1 1,0,0,0,0,0,0,0,0,0,0,0,0,0,0,1,
scooby_state_7f2e6c2084e1|49|12 0,0,0,0,0,0,1,0,0,0,0,0,0,0,0,1,
scooby_state_7f2e6c208853|33|-8 1,0,0,0,0,0,0,0,0,0,0,0,0,0,0,1,
scooby_state_7f2e6c20e424|34|-9 0,0,0,0,1,0,0,0,0,0,0,0,0,0,0,1,
scooby_state_7ff3f188c2ca|1|1 1,0,0,0,0,0,0,0,0,0,0,0,0,0,0,1,
scooby_state_7f2e6c20e3d5|15|-37 0,0,0,0,0,1,0,0,0,0,0,0,0,0,0,1,
scooby_state_7ff3f1876eeb|53|17 0,1,0,0,0,0,0,0,0,0,0,0,0,0,0,1,
scooby_state_7ff3f188efef|59|48 1,0,0,0,0,0,0,0,0,0,0,0,0,0,0,1,
scooby_state_7ff3f188ea6a|11|2 1,0,0,0,0,0,0,0,0,0,0,0,0,0,0,1,
scooby_state_7f2e6c2084e1|59|18 1,0,0,0,0,0,0,0,0,0,0,0,0,0,0,1,
scooby_state_7ff3f187a637|21|0 1,0,0,0,0,0,0,0,0,0,0,0,0,0,0,1,
scooby_state_7ff3f1869340|41|0 1,0,0,0,0,0,0,0,0,0,0,0,0,0,0,1,
scooby_state_7ff3f1870128|11|6 1,0,0,0,0,0,0,0,0,0,0,0,0,0,0,1,
scooby_state_7f2e6c20878d|9|-22 1,0,0,0,0,0,0,0,0,0,0,0,0,0,0,1,
scooby_state_7ff3f18866d3|4|1 1,0,0,0,0,0,0,0,0,0,0,0,0,0,0,1,
scooby_state_7f2e6c210730|28|8 1,0,0,0,0,0,0,0,0,0,0,0,0,0,0,1,
scooby_state_7ff3f1875424|62|-1 1,0,0,0,0,0,0,0,0,0,0,0,0,0,0,1,
scooby_state_7ff3f18753d5|48|34 0,0,0,0,0,0,0,0,0,0,1,0,0,0,0,1,
scooby_state_7f2e6c20e3d5|38|-24 1,0,0,0,0,0,0,0,0,0,0,0,0,0,0,1,
scooby_state_7f2e6c212faa|4|1 1,0,0,0,0,0,0,0,0,0,0,0,0,0,0,1,
scooby_state_7f2e6c20e3d5|43|23 1,0,0,0,0,0,0,0,0,0,0,0,0,0,0,1,
scooby_state_7ff3f18753d5|46|33 0,0,0,0,0,1,0,0,0,0,0,0,0,0,0,1,
scooby_state_7ff3f18753d5|8|-41 1,0,0,0,0,0,0,0,0,0,0,0,0,0,0,1,
scooby_state_7ff3f186ff3b|47|-1 1,0,0,0,0,0,0,0,0,0,0,0,0,0,0,1,
scooby_state_7ff3f1870128|28|-35 1,0,0,0,0,0,0,0,0,0,0,0,0,0,0,1,
scooby_state_7f2e6c21327d|9|-6 1,0,0,0,0,0,0,0,0,0,0,0,0,0,0,1,
scooby_state_7ff3dcc456ea|32|0 1,0,0,0,0,0,0,0,0,0,0,0,0,0,0,1,
scooby_state_7f2e6c208731|51|7 1,0,0,0,0,0,0,0,0,0,0,0,0,0,0,1,
scooby_state_7f2e6c224d82|54|1 1,0,0,0,0,0,0,0,0,0,0,0,0,0,0,1,
scooby_state_7f2e6c20878d|54|12 0,0,0,0,0,0,1,0,0,0,0,0,0,0,0,1,
scooby_state_7f2e6c2175f0|23|-2 1,0,0,0,0,0,0,0,0,0,0,0,0,0,0,1,
scooby_state_7f2e6c2084e1|20|-9 1,0,0,0,0,0,0,0,0,0,0,0,0,0,0,1,
scooby_state_7f2e6c21e340|34|1 1,0,0,0,0,0,0,0,0,0,0,0,0,0,0,1,
scooby_state_7f2e6c212f91|61|1 1,0,0,0,0,0,0,0,0,0,0,0,0,0,0,1,
scooby_state_7ff3dd43f8c1|35|1 0,0,0,0,0,1,0,0,0,0,0,0,0,0,0,1,
scooby_state_7f2e6c2253c2|15|1 1,0,0,0,0,0,0,0,0,0,0,0,0,0,0,1,
scooby_state_7ff3dd09f884|43|4 1,0,0,0,0,0,0,0,0,0,0,0,0,0,0,1,
scooby_state_7f2e6c2161c0|7|-7 1,0,0,0,0,0,0,0,0,0,0,0,0,0,0,1,
scooby_state_7f2e6c223bf0|47|1 1,0,0,0,0,0,0,0,0,0,0,0,0,0,0,1,
scooby_state_7ff3f186f4e1|43|-10 1,0,0,0,0,0,0,0,0,0,0,0,0,0,0,1,
scooby_state_7f2e6c20878d|14|-27 0,0,0,0,0,1,0,0,0,0,0,0,0,0,0,1,
scooby_state_7ff3f18753d5|6|5 1,0,0,0,0,0,0,0,0,0,0,0,0,0,0,1,
scooby_state_7f2e6c212e86|58|1 1,0,0,0,0,0,0,0,0,0,0,0,0,0,0,1,
scooby_state_7ff3f1870128|23|-11 1,0,0,0,0,0,0,0,0,0,0,0,0,0,0,1,
scooby_state_7f2e6c208731|40|-10 1,0,0,0,0,0,0,0,0,0,0,0,0,0,0,1,
scooby_state_7f2e6c20878d|34|14 1,0,0,0,0,0,0,0,0,0,0,0,0,0,0,1,
scooby_state_7f2e6c20e3d5|39|1 0,0,0,0,0,0,0,0,0,1,0,0,0,0,0,1,
scooby_state_7f2e6c213637|32|0 1,0,0,0,0,0,0,0,0,0,0,0,0,0,0,1,
scooby_state_7ff3f1875424|11|7 1,0,0,0,0,0,0,0,0,0,0,0,0,0,0,1,
scooby_state_7f2e6c20878d|3|-38 1,0,0,0,0,0,0,0,0,0,0,0,0,0,0,1,
scooby_state_55ec3b9539c1|4|0 1,0,0,0,0,0,0,0,0,0,0,0,0,0,0,1,
scooby_state_7f2e6c22554a|49|1 1,0,0,0,0,0,0,0,0,0,0,0,0,0,0,1,
scooby_state_7f2e6c208731|63|42 1,0,0,0,0,0,0,0,0,0,0,0,0,0,0,1,
scooby_state_7ff3f186f78d|63|43 1,0,0,0,0,0,0,0,0,0,0,0,0,0,0,1,
scooby_state_7f2e6c20e424|59|48 1,0,0,0,0,0,0,0,0,0,0,0,0,0,0,1,
scooby_state_7ff3f1875424|10|-23 0,0,0,0,0,0,0,0,0,1,0,0,0,0,0,1,
scooby_state_7f2e6c22423e|48|-5 1,0,0,0,0,0,0,0,0,0,0,0,0,0,0,1,
scooby_state_7ff3f186f78d|31|7 1,0,0,0,0,0,0,0,0,0,0,0,0,0,0,1,
scooby_state_7ff3f186f4e1|24|6 1,0,0,0,0,0,0,0,0,0,0,0,0,0,0,1,
scooby_state_7f2e6c20e3d5|47|32 1,0,0,0,0,0,0,0,0,0,0,0,0,0,0,1,
scooby_state_7ff3f1875424|34|24 1,0,0,0,0,0,0,0,0,0,0,0,0,0,0,1,
scooby_state_7ff3f186f78d|7|-26 1,0,0,0,0,0,0,0,0,0,0,0,0,0,0,1,
scooby_state_7ff3f186f731|50|-6 1,0,0,0,0,0,0,0,0,0,0,0,0,0,0,1,
scooby_state_7f2e6c210741|29|1 1,0,0,0,0,0,0,0,0,0,0,0,0,0,0,1,
scooby_state_7ff3f186f78d|3|-6 1,0,0,0,0,0,0,0,0,0,0,0,0,0,0,1,
scooby_state_55ec3b9545b8|22|14 1,0,0,0,0,0,0,0,0,0,0,0,0,0,0,1,
scooby_state_7f2e6c20e3d5|9|-27 1,0,0,0,0,0,0,0,0,0,0,0,0,0,0,1,
scooby_state_7f2e6c221645|25|7 1,0,0,0,0,0,0,0,0,0,0,0,0,0,0,1,
scooby_state_7ff3f187549f|48|12 1,0,0,0,0,0,0,0,0,0,0,0,0,0,0,1,
scooby_state_7f2e6c214d70|53|11 1,0,0,0,0,0,0,0,0,0,0,0,0,0,0,1,
scooby_state_7ff3f1883628|24|4 1,0,0,0,0,0,0,0,0,0,0,0,0,0,0,1,
scooby_state_7f2e6c208370|39|-1 1,0,0,0,0,0,0,0,0,0,0,0,0,0,0,1,
scooby_state_7ff3f18753d5|32|6 1,0,0,0,0,0,0,0,0,0,0,0,0,0,0,1,
scooby_state_7f2e6c20e3d5|4|-25 1,0,0,0,0,0,0,0,0,0,0,0,0,0,0,1,
scooby_state_55ec3b953354|58|-2 1,0,0,0,0,0,0,0,0,0,0,0,0,0,0,1,
scooby_state_7f2e6c20878d|14|7 0,0,1,0,0,0,0,0,0,0,0,0,0,0,0,1,
scooby_state_7f2e6c20e583|22|-21 1,0,0,0,0,0,0,0,0,0,0,0,0,0,0,1,
scooby_state_7ff3f1870151|42|-1 1,0,0,0,0,0,0,0,0,0,0,0,0,0,0,1,
scooby_state_7f2e6c208731|13|4 1,0,0,0,0,0,0,0,0,0,0,0,0,0,0,1,
scooby_state_7ff3f18853c0|35|1 1,0,0,0,0,0,0,0,0,0,0,0,0,0,0,1,
scooby_state_7f2e6c20e3d5|46|37 1,0,0,0,0,0,0,0,0,0,0,0,0,0,0,1,
scooby_state_7ff3f186f480|18|-2 1,0,0,0,0,0,0,0,0,0,0,0,0,0,0,1,
scooby_state_7ff3f1875424|14|-33 1,0,0,0,0,0,0,0,0,0,0,0,0,0,0,1,
scooby_state_7f2e6c208731|23|0 1,0,0,0,0,0,0,0,0,0,0,0,0,0,0,1,
scooby_state_7f2e6c215f10|60|31 1,0,0,0,0,0,0,0,0,0,0,0,0,0,0,1,
scooby_state_7f2e6c21fa6f|1|1 1,0,0,0,0,0,0,0,0,0,0,0,0,0,0,1,
scooby_state_7ff3f186f78d|25|-21 0,0,0,0,0,0,0,0,0,1,0,0,0,0,0,1,
scooby_state_7f2e6c20e3d5|44|1 0,0,1,0,0,0,0,0,0,0,0,0,0,0,0,1,
scooby_state_7ff3f186ff3b|18|-24 1,0,0,0,0,0,0,0,0,0,0,0,0,0,0,1,
scooby_state_7ff3f1870128|36|17 1,0,0,0,0,0,0,0,0,0,0,0,0,0,0,1,
scooby_state_7ff3f1885350|54|1 1,0,0,0,0,0,0,0,0,0,0,0,0,0,0,1,
scooby_state_7f2e6c20878d|21|-13 0,1,0,0,0,0,0,0,0,0,0,0,0,0,0,1,
scooby_state_7ff3f186f78d|17|12 1,0,0,0,0,0,0,0,0,0,0,0,0,0,0,1,
scooby_state_7f2e6c20e3d5|35|-9 1,0,0,0,0,0,0,0,0,0,0,0,0,0,0,1,
scooby_state_7ff3f18753d5|11|-50 0,0,0,0,0,0,0,0,0,0,0,0,1,0,0,1,
scooby_state_7f2e6c209128|16|-4 1,0,0,0,0,0,0,0,0,0,0,0,0,0,0,1,
scooby_state_7ff3f186f731|59|31 1,0,0,0,0,0,0,0,0,0,0,0,0,0,0,1,
scooby_state_7f2e6c2084e1|34|22 1,0,0,0,0,0,0,0,0,0,0,0,0,0,0,1,
scooby_state_7f2e6c20e424|8|-23 0,0,1,0,0,0,0,0,0,0,0,0,0,0,0,1,
scooby_state_7f2e6c20878d|53|28 1,0,0,0,0,0,0,0,0,0,0,0,0,0,0,1,
scooby_state_7ff3f188c2c0|11|1 1,0,0,0,0,0,0,0,0,0,0,0,0,0,0,1,
scooby_state_7f2e6c2084e1|27|-30 1,0,0,0,0,0,0,0,0,0,0,0,0,0,0,1,
scooby_state_7ff3f186f4e1|26|2 1,0,0,0,0,0,0,0,0,0,0,0,0,0,0,1,
scooby_state_7f2e6c20878d|2|-19 1,0,0,0,0,0,0,0,0,0,0,0,0,0,0,1,
scooby_state_7f2e6c20e424|8|-10 1,0,0,0,0,0,0,0,0,0,0,0,0,0,0,1,
scooby_state_7ff3dd0a05e4|6|-50 0,0,0,0,0,0,0,0,0,0,0,0,0,0,1,1,
scooby_state_7f2e6c2084e1|10|-5 1,0,0,0,0,0,0,0,0,0,0,0,0,0,0,1,
scooby_state_7f2e6c209128|59|8 1,0,0,0,0,0,0,0,0,0,0,0,0,0,0,1,
scooby_state_7f2e6c20e424|5|-31 1,0,0,0,0,0,0,0,0,0,0,0,0,0,0,1,
scooby_state_7f2e6c20e3d5|53|18 0,1,0,0,0,0,0,0,0,0,0,0,0,0,0,1,
scooby_state_7ff3f1875424|50|21 1,0,0,0,0,0,0,0,0,0,0,0,0,0,0,1,
scooby_state_7f2e6c208731|15|3 1,0,0,0,0,0,0,0,0,0,0,0,0,0,0,1,
scooby_state_7ff3f1870128|4|-24 1,0,0,0,0,0,0,0,0,0,0,0,0,0,0,1,
scooby_state_7f2e6c2130c1|3|2 1,0,0,0,0,0,0,0,0,0,0,0,0,0,0,1,
scooby_state_7f2e6c209128|12|-7 1,0,0,0,0,0,0,0,0,0,0,0,0,0,0,1,
scooby_state_7f2e6c2084e1|57|21 1,0,0,0,0,0,0,0,0,0,0,0,0,0,0,1,
scooby_state_7f2e6c20e424|23|-33 1,0,0,0,0,0,0,0,0,0,0,0,0,0,0,1,
scooby_state_7f2e6c20e424|24|0 0,0,1,0,0,0,0,0,0,0,0,0,0,0,0,1,
scooby_state_7f2e6c20878d|36|36 1,0,0,0,0,0,0,0,0,0,0,0,0,0,0,1,
scooby_state_7ff3dd0c1804|32|1 1,0,0,0,0,0,0,0,0,0,0,0,0,0,0,1,
scooby_state_7f2e6c209128|20|-8 1,0,0,0,0,0,0,0,0,0,0,0,0,0,0,1,
scooby_state_7ff3f188c2c0|11|-10 1,0,0,0,0,0,0,0,0,0,0,0,0,0,0,1,
scooby_state_7f2e6c208731|59|27 1,0,0,0,0,0,0,0,0,0,0,0,0,0,0,1,
scooby_state_7ff3f188af41|61|1 1,0,0,0,0,0,0,0,0,0,0,0,0,0,0,1,
scooby_state_7f2e6c20e424|10|-19 0,1,0,0,0,0,0,0,0,0,0,0,0,0,0,1,
scooby_state_7f2e6c20878d|51|0 0,0,0,1,0,0,0,0,0,0,0,0,0,0,0,1,
scooby_state_7ff3f188c264|13|-13 1,0,0,0,0,0,0,0,0,0,0,0,0,0,0,1,
scooby_state_7f2e6c208731|7|0 1,0,0,0,0,0,0,0,0,0,0,0,0,0,0,1,
scooby_state_7ff3f186f78d|20|-11 1,0,0,0,0,0,0,0,0,0,0,0,0,0,0,1,
scooby_state_7f2e6c20e3d5|59|54 1,0,0,0,0,0,0,0,0,0,0,0,0,0,0,1,
scooby_state_7f2e6c20e424|25|-8 0,0,1,0,0,0,0,0,0,0,0,0,0,0,0,1,
scooby_state_7f2e6c20e424|19|-33 1,0,0,0,0,0,0,0,0,0,0,0,0,0,0,1,
scooby_state_7ff3f186f78d|4|-8 1,0,0,0,0,0,0,0,0,0,0,0,0,0,0,1,
scooby_state_7f2e6c20878d|43|-12 0,1,0,0,0,0,0,0,0,0,0,0,0,0,0,1,
scooby_state_7ff3f1867a06|40|1 1,0,0,0,0,0,0,0,0,0,0,0,0,0,0,1,
scooby_state_7f2e6c20878d|60|2 0,0,0,1,0,0,0,0,0,0,0,0,0,0,0,1,
scooby_state_7ff3f1875424|30|22 0,0,0,0,0,0,0,0,0,0,0,0,0,0,1,1,
scooby_state_7f2e6c209128|1|1 1,0,0,0,0,0,0,0,0,0,0,0,0,0,0,1,
scooby_state_7ff3f18753d5|9|-1 1,0,0,0,0,0,0,0,0,0,0,0,0,0,0,1,
scooby_state_7ff3f1886e44|57|1 1,0,0,0,0,0,0,0,0,0,0,0,0,0,0,1,
scooby_state_7ff3f186f78d|32|16 0,0,0,0,0,0,0,0,0,0,0,0,0,0,1,1,
scooby_state_7ff3dcca4228|8|0 1,0,0,0,0,0,0,0,0,0,0,0,0,0,0,1,
scooby_state_7f2e6c2084e1|13|-49 1,0,0,0,0,0,0,0,0,0,0,0,0,0,0,1,
scooby_state_7f2e579477b0|30|0 1,0,0,0,0,0,0,0,0,0,0,0,0,0,0,1,
scooby_state_7f2e6c208731|47|-7 1,0,0,0,0,0,0,0,0,0,0,0,0,0,0,1,
scooby_state_7ff3f1874e06|56|1 1,0,0,0,0,0,0,0,0,0,0,0,0,0,0,1,
scooby_state_7f2e6c2084e1|51|17 1,0,0,0,0,0,0,0,0,0,0,0,0,0,0,1,
scooby_state_7f2e6c20878d|56|49 1,0,0,0,0,0,0,0,0,0,0,0,0,0,0,1,
scooby_state_7f2e6c20878d|24|13 1,0,0,0,0,0,0,0,0,0,0,0,0,0,0,1,
scooby_state_7ff3f1875424|41|-22 0,0,0,0,0,0,0,0,1,0,0,0,0,0,0,1,
scooby_state_7ff3f1875424|7|-47 0,0,0,0,0,0,1,0,0,0,0,0,0,0,0,1,
scooby_state_7f2e6c208731|17|-34 1,0,0,0,0,0,0,0,0,0,0,0,0,0,0,1,
scooby_state_7ff3dd09da50|41|7 1,0,0,0,0,0,0,0,0,0,0,0,0,0,0,1,
scooby_state_7f2e6c2084e1|0|-63 1,0,0,0,0,0,0,0,0,0,0,0,0,0,0,1,
scooby_state_7f2e6c20e424|49|0 0,0,1,0,0,0,0,0,0,0,0,0,0,0,0,1,
scooby_state_7ff3dd0cf5c6|23|1 1,0,0,0,0,0,0,0,0,0,0,0,0,0,0,1,
scooby_state_7ff3f1875424|53|20 0,0,0,0,0,0,0,0,0,0,0,1,0,0,0,1,
scooby_state_7f2e6c208731|63|4 1,0,0,0,0,0,0,0,0,0,0,0,0,0,0,1,
scooby_state_7f2e6c209128|50|-13 1,0,0,0,0,0,0,0,0,0,0,0,0,0,0,1,
scooby_state_7ff3f187a637|10|-43 1,0,0,0,0,0,0,0,0,0,0,0,0,0,0,1,
scooby_state_7ff3f18753d5|52|30 0,0,0,0,0,0,0,0,0,0,0,0,1,0,0,1,
scooby_state_7f2e6c2084e1|14|-16 1,0,0,0,0,0,0,0,0,0,0,0,0,0,0,1,
scooby_state_7f2e6c208268|46|1 0,0,0,0,1,0,0,0,0,0,0,0,0,0,0,1,
scooby_state_7f2e6c2084e1|35|10 1,0,0,0,0,0,0,0,0,0,0,0,0,0,0,1,
scooby_state_7f2e6c20e424|16|0 0,0,1,0,0,0,0,0,0,0,0,0,0,0,0,1,
scooby_state_7f2e6c20de34|29|-1 1,0,0,0,0,0,0,0,0,0,0,0,0,0,0,1,
scooby_state_7ff3f186f78d|1|-1 1,0,0,0,0,0,0,0,0,0,0,0,0,0,0,1,
scooby_state_7ff3f186f78d|50|42 1,0,0,0,0,0,0,0,0,0,0,0,0,0,0,1,
scooby_state_7f2e6c20e3d5|29|-30 1,0,0,0,0,0,0,0,0,0,0,0,0,0,0,1,
scooby_state_7f2e6c208f3b|25|-11 1,0,0,0,0,0,0,0,0,0,0,0,0,0,0,1,
scooby_state_7f2e6c212f41|61|1 1,0,0,0,0,0,0,0,0,0,0,0,0,0,0,1,
scooby_state_7f2e6c20878d|20|-35 1,0,0,0,0,0,0,0,0,0,0,0,0,0,0,1,
scooby_state_7ff3f18753d5|16|-5 1,0,0,0,0,0,0,0,0,0,0,0,0,0,0,1,
scooby_state_7f2e6c20e424|30|-17 0,0,0,0,0,0,0,0,1,0,0,0,0,0,0,1,

scooby_action_0_deg_dist 0,309,0,0,0,0,0,0,0,0,0,0,0,0,0,0,
scooby_action_-6_deg_dist 0,185,0,0,0,0,0,0,0,0,0,0,0,0,0,0,
scooby_action_3_deg_dist 0,335,14,0,8,0,0,0,0,0,0,0,0,0,0,0,
scooby_action_32_deg_dist 0,152,0,0,0,0,0,0,0,0,0,0,0,0,0,0,
scooby_action_4_deg_dist 0,317,5,0,3,0,0,0,0,0,0,0,0,0,0,0,
scooby_action_1_deg_dist 0,10981,6132,0,14037,0,131909,0,0,0,0,0,0,0,0,0,
scooby_action_30_deg_dist 0,209,0,0,0,0,0,0,0,0,0,0,0,0,0,0,
scooby_action_5_deg_dist 0,320,25,0,34,0,38,0,0,0,0,0,0,0,0,0,
scooby_action_10_deg_dist 0,291,2,0,0,0,0,0,0,0,0,0,0,0,0,0,
scooby_action_-1_deg_dist 0,232,1,0,0,0,0,0,0,0,0,0,0,0,0,0,
scooby_action_23_deg_dist 0,177,0,0,0,0,0,0,0,0,0,0,0,0,0,0,
scooby_action_11_deg_dist 0,217,0,0,0,0,0,0,0,0,0,0,0,0,0,0,
scooby_action_12_deg_dist 0,243,0,0,0,0,0,0,0,0,0,0,0,0,0,0,
scooby_action_22_deg_dist 0,204,0,0,0,0,0,0,0,0,0,0,0,0,0,0,
scooby_action_-3_deg_dist 0,237,1,0,0,0,0,0,0,0,0,0,0,0,0,0,

scooby_track_called 166618
scooby_track_same_address 585
scooby_track_evict 165777

scooby_reward_demand_called 166618
scooby_reward_demand_pt_not_found 14306
scooby_reward_demand_pt_found 152312
scooby_reward_demand_pt_found_total 152312
scooby_reward_demand_has_reward 0
scooby_reward_train_called 10627
scooby_reward_assign_reward_called 166030
scooby_reward_no_pref 309
scooby_reward_incorrect 10318
scooby_reward_correct_untimely 141116
scooby_reward_correct_timely 11196
scooby_reward_out_of_bounds 3091
scooby_reward_tracker_hit 0

scooby_reward_none_low_bw 309
scooby_reward_none_high_bw 0
scooby_reward_incorrect_low_bw 10318
scooby_reward_incorrect_high_bw 0
scooby_reward_correct_untimely_low_bw 141116
scooby_reward_correct_untimely_high_bw 0
scooby_reward_correct_timely_low_bw 11196
scooby_reward_correct_timely_high_bw 0
scooby_reward_out_of_bounds_low_bw 3091
scooby_reward_out_of_bounds_high_bw 0
scooby_reward_tracker_hit_low_bw 0
scooby_reward_tracker_hit_high_bw 0

scooby_reward_1 0,8289,140904,10999,2531,0,
scooby_reward_3 0,267,33,22,14,0,
scooby_reward_4 0,230,41,10,18,0,
scooby_reward_5 0,275,37,40,33,0,
scooby_reward_10 0,189,17,28,40,0,
scooby_reward_11 0,135,6,16,46,0,
scooby_reward_12 0,135,15,24,55,0,
scooby_reward_22 0,106,5,16,70,0,
scooby_reward_23 0,77,3,14,78,0,
scooby_reward_30 0,76,5,16,105,0,
scooby_reward_32 0,63,3,10,73,0,
scooby_reward_-1 0,171,22,0,1,0,
scooby_reward_-3 0,168,21,1,12,0,
scooby_reward_-6 0,137,4,0,15,0,
scooby_reward_0 309,0,0,0,0,0,

scooby_train_called 165776
scooby_train_compute_reward 10627

scooby_register_fill_called 158565
scooby_register_fill_set 14107
scooby_register_fill_set_total 14107

scooby_register_prefetch_hit_called 660557
scooby_register_prefetch_hit_set 154153
scooby_register_prefetch_hit_set_total 154153

scooby_pref_issue_scooby 820802

learning_engine_featurewise.action.called 166618
learning_engine_featurewise.action.explore 316
learning_engine_featurewise.action.exploit 166302
learning_engine_featurewise.action.fallback 0
learning_engine_featurewise.action.dyn_fallback_saved_bw 0
learning_engine_featurewise.action.dyn_fallback_saved_bw_acc 0
learning_engine_featurewise.action.index_1_explored 22
learning_engine_featurewise.action.index_1_exploited 163037
learning_engine_featurewise.action.index_3_explored 26
learning_engine_featurewise.action.index_3_exploited 331
learning_engine_featurewise.action.index_4_explored 18
learning_engine_featurewise.action.index_4_exploited 307
learning_engine_featurewise.action.index_5_explored 21
learning_engine_featurewise.action.index_5_exploited 396
learning_engine_featurewise.action.index_10_explored 27
learning_engine_featurewise.action.index_10_exploited 266
learning_engine_featurewise.action.index_11_explored 21
learning_engine_featurewise.action.index_11_exploited 196
learning_engine_featurewise.action.index_12_explored 20
learning_engine_featurewise.action.index_12_exploited 223
learning_engine_featurewise.action.index_22_explored 23
learning_engine_featurewise.action.index_22_exploited 181
learning_engine_featurewise.action.index_23_explored 22
learning_engine_featurewise.action.index_23_exploited 155
learning_engine_featurewise.action.index_30_explored 26
learning_engine_featurewise.action.index_30_exploited 183
learning_engine_featurewise.action.index_32_explored 17
learning_engine_featurewise.action.index_32_exploited 135
learning_engine_featurewise.action.index_-1_explored 18
learning_engine_featurewise.action.index_-1_exploited 215
learning_engine_featurewise.action.index_-3_explored 17
learning_engine_featurewise.action.index_-3_exploited 221
learning_engine_featurewise.action.index_-6_explored 17
learning_engine_featurewise.action.index_-6_exploited 168
learning_engine_featurewise.action.index_0_explored 21
learning_engine_featurewise.action.index_0_exploited 288
learning_engine_featurewise.learn.called 165776
learning_engine_featurewise.learn.su_skip_PC 0
learning_engine_featurewise.learn.su_skip_PC_Delta 0

learning_engine_featurewise.q_value_histogram.bucket_0 0
learning_engine_featurewise.q_value_histogram.bucket_1 0
learning_engine_featurewise.q_value_histogram.bucket_2 0
learning_engine_featurewise.q_value_histogram.bucket_3 985
learning_engine_featurewise.q_value_histogram.bucket_4 13030
learning_engine_featurewise.q_value_histogram.bucket_5 4448
learning_engine_featurewise.q_value_histogram.bucket_6 147839
learning_engine_featurewise.q_value_histogram.bucket_7 0

learning_engine_featurewise.consensus.total 166302
learning_engine_featurewise.consensus.feature_align_PC 158319
learning_engine_featurewise.consensus.feature_align_PC_ratio 0.95
learning_engine_featurewise.consensus.feature_align_PC_Delta 164119
learning_engine_featurewise.consensus.feature_align_PC_Delta_ratio 0.99
learning_engine_featurewise.consensus.feature_align_all 156136
learning_engine_featurewise.consensus.feature_align_all_ratio 0.94

learning_engine_featurewise.feature_PC_min_weight 1000000.00000000
learning_engine_featurewise.feature_PC_max_weight 0.00000000
learning_engine_featurewise.feature_PC_Delta_min_weight 1000000.00000000
learning_engine_featurewise.feature_PC_Delta_max_weight 0.00000000
unique_pcs 3654
unique_pages 887
unique_trigger_pcs 602
total_bitmaps_seen 0
unique_bitmaps_seen 0

scooby_bw_epochs 2046922
scooby_bw_level_0 2046922
scooby_bw_level_1 0
scooby_bw_level_2 0
scooby_bw_level_3 0

scooby_ipc_epochs 0
scooby_ipc_level_0 0
scooby_ipc_level_1 0
scooby_ipc_level_2 0
scooby_ipc_level_3 0

scooby_cache_acc_epochs 511652
scooby_cache_acc_level_0 175555
scooby_cache_acc_level_1 93450
scooby_cache_acc_level_2 91220
scooby_cache_acc_level_3 31588
scooby_cache_acc_level_4 1028
scooby_cache_acc_level_5 87638
scooby_cache_acc_level_6 28194
scooby_cache_acc_level_7 1089
scooby_cache_acc_level_8 890
scooby_cache_acc_level_9 1000

Channel_0_RQ_row_buffer_hit 20289
Channel_0_RQ_row_buffer_miss 13458
Channel_0_WQ_row_buffer_hit 0
Channel_0_WQ_row_buffer_miss 600
Channel_0_WQ_full 0
Channel_0_dbus_congested 0

avg_congested_cycle 0

DRAM_bw_pochs 2046922
DRAM_bw_level_0 2046922
DRAM_bw_level_1 0
DRAM_bw_level_2 0
DRAM_bw_level_3 0
